155

 C         1.1895722036       -0.7406858934        2.5428344163
 C        -0.0566438910       -0.0973673359        2.0577560812
 C        -1.3795149508       -0.8507589788        1.7679912110
 C        -2.4958306521       -0.4534483085        2.9715673105
 C        -3.2310068520       -1.5592801252        3.7268967827
 C        -1.9805886507       -0.2619235951        0.4882253400
 C        -1.1498919324       -2.3563526242        1.5779323601
 O         0.0770926478        1.1257263740        1.9567757884
 O        -2.7761241760        0.7222955750        3.1714469154
 C        -3.5062613247       -1.2528756656        5.2039163940
 C        -2.3121961411       -1.5871382917        5.9924743975
 C        -2.3197158147       -0.9736380003        7.5500699128
 C        -2.8410093140        0.4922215025        7.5574877523
 C        -1.9200917305        1.6226600515        6.8155924427
 O        -1.3881361699       -2.3311526733        5.6895899391
 O        -3.9339198844        0.7557442943        8.0755965962
 C        -3.2124440320       -1.8029824197        8.4254763744
 C        -0.8590844006       -0.8833528795        8.0853033276
 C        -2.7292237717        2.9001274866        6.6167709072
 C        -2.6517448694        3.4279422642        5.1974235763
 C        -3.7490272020        4.6320821957        4.6824929128
 C        -3.6052457190        4.8089701805        3.1639978168
 C        -4.8932701270        5.2030134439        2.3780038546
 C        -5.2096996926        4.2528279460        5.0770670980
 C        -3.3324477917        6.0038274855        5.4497686394
 O        -1.7536155523        3.1054980154        4.4574655901
 O        -2.6267691355        4.5551966391        2.5644729197
 C        -4.6643218276        5.3348690391        0.9181291823
 C        -3.7880071075        4.1152819081        0.3912228546
 C        -3.0020532605        4.1873490491       -0.9473991817
 C        -1.5011715367        3.8269539763       -0.8680185119
 C        -0.5327635738        3.9343474503       -2.0738374848
 O        -3.8802461347        3.0971302235        1.0533790179
 O        -0.9636678617        3.4923682386        0.1752079298
 C        -3.5874887334        3.1276021470       -1.9569970075
 C        -3.0561171375        5.5806293517       -1.6472512620
 C         0.7673616598        4.6104018926       -1.6492251955
 C         1.6457366253        5.1750205987       -2.8284486740
 C         3.2262459369        5.4304659420       -2.6124032092
 C         3.8137905608        4.0411597072       -2.1433594391
 C         3.9407396859        3.0401437972       -3.3354123182
 C         3.7789401623        5.8917982376       -3.9251611216
 C         3.3473345873        6.6180631020       -1.5815503380
 O         1.1306770107        5.4928628329       -3.8734312374
 O         4.2937844470        3.8130190772       -1.0492678235
 C         4.7698802868        1.8278424749       -2.7966844272
 C         3.9482014011        0.9163101676       -1.8825636565
 C         4.7347137547       -0.2974830954       -1.0807645589
 C         4.0858089122       -1.6736838493       -1.4458417502
 C         3.7057457267       -1.7924101036       -3.0157116230
 O         2.7421081136        0.9529519777       -1.7893993330
 O         3.8303200875       -2.5372677154       -0.6676383060
 C         6.1260809933       -0.4132561031       -1.6289852143
 C         4.6348673181       -0.0696072752        0.4480514265
 C         2.6712942186       -2.9051230942       -3.3931826447
 C         2.7905145410       -3.2464301103       -4.9457496033
 C         2.0881226014       -4.6028854271       -5.4907787968
 C         1.2485224133       -5.3419504285       -4.2315623854
 C        -0.2768163653       -5.0462089869       -4.1376218693
 C         1.4177413101       -4.1615566496       -6.7687588744
 C         3.1648633014       -5.7506751084       -5.8795173336
 O         3.4336279428       -2.5894919755       -5.6919121516
 O         1.8934819504       -5.9311437970       -3.4098369644
 C        -1.1342185864       -6.2323822030       -4.5784423550
 C        -2.3137164895       -5.9399042226       -5.6241535404
 C        -3.1560131450       -7.2171550553       -5.9458464790
 C        -4.0898227690       -7.3989473259       -4.6410596335
 C        -4.9133697278       -8.6280093879       -4.5847607003
 O        -2.5569333283       -4.8574497857       -5.9786656289
 O        -4.2637848342       -6.4753564326       -3.8910050350
 C        -4.1791185206       -6.8624830342       -7.1272045832
 C        -2.3027849591       -8.4315343727       -6.2064658493
 H         1.1279786183       -1.7804800829        2.8584231945
 H         1.8186280532       -0.7294882567        1.6728624684
 H         1.7933576345       -0.1001626126        3.2616929824
 H        -4.1973803866       -1.6113870070        3.2158774786
 H        -2.9057499114       -2.5250584960        3.5675389508
 H        -1.2535433681        0.0727769455       -0.2740975994
 H        -2.7419109622        0.4808809498        0.6903601453
 H        -2.6045235703       -1.0354695790        0.0997305678
 H        -0.5264290145       -2.8562169431        2.2988757599
 H        -2.1111927749       -2.8519578565        1.5600328097
 H        -0.6116675232       -2.4739254778        0.5563654329
 H        -3.8280255703       -0.1849654083        5.2822127907
 H        -4.3230250763       -1.8853560982        5.5265006621
 H        -1.1702658234        1.7538860759        7.5913375240
 H        -1.5616436605        1.1403973306        5.8580831274
 H        -4.3158203100       -1.7279848133        8.1129506452
 H        -3.1211860478       -1.3734614808        9.4344458167
 H        -2.9257336488       -2.8421193370        8.2267194585
 H        -0.8526960744       -0.6372973215        9.1224852861
 H        -0.4171667872       -1.8965819555        8.0513741961
 H        -0.3720033211       -0.2079897231        7.3224102173
 H        -2.2632905904        3.6699183824        7.2202355320
 H        -3.8111027348        2.7743406372        6.8647332456
 H        -5.6889194418        4.5083331215        2.6447371062
 H        -5.2436853547        6.1732319334        2.8740745516
 H        -5.3677109597        3.2137488790        4.9148282842
 H        -5.9712405119        4.7247199602        4.6475877540
 H        -5.3623152503        4.2770985604        6.2004534356
 H        -2.8431783871        6.6646203772        4.7314081318
 H        -4.1154368531        6.5302612177        5.8227060615
 H        -2.7262851202        5.7460867247        6.2560674608
 H        -5.6507281323        5.2026027559        0.4845757729
 H        -4.3162825682        6.3228139736        0.4627670515
 H        -0.2207378358        2.8987273243       -2.3205650988
 H        -0.8968624259        4.4033903172       -3.0145840837
 H        -4.6292374161        2.9083216947       -1.7251713969
 H        -3.0447866903        2.2297553819       -1.7188558625
 H        -3.5971055675        3.3836669445       -3.0480894299
 H        -2.3541623913        5.5638615877       -2.5174549700
 H        -4.0657939400        5.7547779672       -1.9655352237
 H        -2.7761475323        6.3688632854       -0.9570002425
 H         1.3292466245        3.9638586520       -0.9522182764
 H         0.4007429905        5.4364736259       -1.0682944627
 H         2.8944011891        2.7634690244       -3.5431159851
 H         4.3649736646        3.5018447201       -4.1857277238
 H         3.7014265479        5.1716883918       -4.7243750804
 H         4.7899351768        6.2071724207       -3.7155549056
 H         3.1057410925        6.7314275013       -4.1319154177
 H         2.9279598906        6.4047968147       -0.6052508046
 H         4.3941874588        6.7144008226       -1.4372703055
 H         2.7755299089        7.3824716894       -1.9603588057
 H         5.1793846280        1.3203705723       -3.6211847350
 H         5.6337797691        2.1359681157       -2.1467150232
 H         3.3566842878       -0.7542500765       -3.2916423323
 H         4.6362412890       -2.0344138260       -3.5671244495
 H         6.7494135269        0.4473715602       -1.5810137698
 H         6.2366861938       -0.8877904554       -2.5970984350
 H         6.5871675503       -0.9765143918       -0.8778847897
 H         3.6623326831        0.3263108795        0.7516354375
 H         4.7678660088       -1.0470867207        0.9395911936
 H         5.4260816629        0.6290303077        0.8795650107
 H         1.6628849153       -2.6393063668       -3.1337474582
 H         2.9185406953       -3.7638487301       -2.7422146962
 H        -0.4863340488       -4.6953222180       -3.0390345255
 H        -0.4703474717       -4.0748240363       -4.7330628400
 H         1.1767293055       -4.9978551606       -7.4543625007
 H         2.0439856350       -3.3364281659       -7.2198964113
 H         0.4563398652       -3.6536132382       -6.5750278631
 H         2.6768655809       -6.6778303470       -6.0427890422
 H         3.8334449342       -5.5007628555       -6.6913551922
 H         3.6944001134       -5.9489147436       -4.9768383863
 H        -0.5701741629       -7.0139854611       -5.0305299063
 H        -1.6077237887       -6.7537345869       -3.7395228038
 H        -4.4740847065       -9.4782376888       -4.0928494815
 H        -5.8131612318       -8.4278968268       -3.9598567673
 H        -5.2948304646       -8.9874562708       -5.5946015133
 H        -4.5540761088       -5.8412580072       -6.9670043102
 H        -4.9261547703       -7.6456674547       -7.1964264016
 H        -3.6221944133       -6.8437118710       -8.0557214064
 H        -2.9487298033       -9.2376654062       -6.5580937607
 H        -1.6017074818       -8.2406557489       -7.0856353140
 H        -1.7818062873       -8.8835099384       -5.3666984613
 Na       -1.6368502836        2.4675913289        1.9839114529
