155

 C         0.6601856046       -0.8942647545        2.6388217019
 C        -0.5557890603       -0.2267304127        2.0328168349
 C        -1.7182550575       -1.1782896163        1.5178752691
 C        -2.8061640886       -1.0387830166        2.6959437785
 C        -3.0286322644       -2.1723287867        3.7518016544
 C        -2.4162893102       -0.6122528722        0.2798106344
 C        -1.2170880067       -2.6242460172        1.1838899975
 O        -0.6956493132        0.9875565652        1.9891525115
 O        -3.4638305489       -0.0320368595        2.6319603003
 C        -3.0175377037       -1.7023690640        5.1965510382
 C        -1.8123682408       -0.6941058664        5.5501914629
 C        -1.3372361845       -0.3661741871        7.0202460477
 C        -2.4046977902        0.6616792425        7.3540325008
 C        -2.2111597265        2.1468072230        6.7014661687
 O        -1.4296198553       -0.0464551421        4.6159923060
 O        -3.4434506607        0.2770136394        7.9074001348
 C        -1.5034156923       -1.6051714202        7.9906464418
 C         0.0637200609        0.1697506090        6.8638422187
 C        -3.6147344560        2.8473522800        6.5114469469
 C        -3.7853423834        3.4131604942        5.0837219346
 C        -4.7295655760        4.6416862609        4.8120783075
 C        -4.5680107502        5.1868559464        3.3569146768
 C        -4.9959045322        4.2671650115        2.1335646159
 C        -6.2325249913        4.2582613368        5.0515288473
 C        -4.3082497221        5.7535026386        5.8185503939
 O        -3.2101584672        2.8829039564        4.1434043538
 O        -4.1108609757        6.3105840076        3.1587134091
 C        -4.3897997234        4.6727884025        0.7824425368
 C        -3.9494978788        3.5089866859       -0.0913221227
 C        -3.0611771562        3.9303228073       -1.3849104058
 C        -1.5663850369        3.9822752355       -0.7776354522
 C        -0.4558870140        4.5651389752       -1.7813684767
 O        -4.2794764673        2.3609921503        0.0304909314
 O        -1.3181611323        3.5514610812        0.2980934255
 C        -3.1310006484        2.8587160907       -2.5353553430
 C        -3.3449369989        5.2954196331       -2.0598875067
 C         0.8247182110        3.6704062145       -1.7770596289
 C         1.8846845692        4.2126052188       -2.7867510272
 C         3.0170180683        5.1599257364       -2.2290669335
 C         4.1989037781        4.1376684228       -1.8197434192
 C         4.0652603330        2.6663888467       -2.2945788001
 C         3.4772245896        6.0294775982       -3.4706444591
 C         2.6751675692        6.1194863233       -1.0725562964
 O         1.9024213631        3.8994803154       -3.9405601402
 O         5.1610927684        4.4473404762       -1.1890766658
 C         4.9403008954        1.7508147665       -1.5114661483
 C         4.1338700745        0.4890062606       -1.0467473444
 C         4.8654493729       -0.6765779244       -0.3536485014
 C         4.0461540976       -1.8972920625       -0.9925502496
 C         4.2215576164       -2.1514935356       -2.5760869469
 O         2.9439380532        0.5709661231       -1.1068363067
 O         3.1469201256       -2.3439145024       -0.3564129695
 C         6.3511976722       -0.8484997597       -0.6451365504
 C         4.5465505272       -0.6363288416        1.1911493450
 C         3.3048749898       -3.2471764212       -3.1013788069
 C         2.7342915634       -2.9425214046       -4.4077932689
 C         2.5929130677       -4.1636591058       -5.3816821634
 C         1.6020508177       -5.1192187725       -4.6993491829
 C         0.1700987568       -4.5009645487       -4.1885030024
 C         1.9382959687       -3.7239378365       -6.7694199198
 C         4.0671760610       -4.8687539150       -5.6875401931
 O         2.2867117532       -1.8628027132       -4.7870700626
 O         1.8497690063       -6.2674511619       -4.3789216305
 C        -0.9238859659       -5.5375620493       -4.2494073432
 C        -1.5548420213       -5.6392511194       -5.6461148222
 C        -2.6519947389       -6.6349550603       -6.0179673163
 C        -3.5245576503       -7.1086383072       -4.8078106031
 C        -4.4016830243       -8.3275905403       -4.9652345737
 O        -1.1239408982       -4.9390664987       -6.5569966995
 O        -3.7147954912       -6.3754124177       -3.8584955140
 C        -3.5961308615       -5.8944880218       -7.0408339910
 C        -1.9390364049       -7.9165243968       -6.5901930617
 H         1.5574652274       -0.8392356785        2.0612578492
 H         0.8182087112       -0.4911991761        3.6764148366
 H         0.5518355454       -1.9519187004        2.6389118632
 H        -3.9239424195       -2.6624685683        3.5094275538
 H        -2.1175674759       -2.9106832105        3.6730819052
 H        -1.9330081056       -0.9373723498       -0.6589230680
 H        -2.4843981512        0.4950666967        0.3437757218
 H        -3.4032238362       -1.1515807054        0.1119865909
 H        -0.8558957762       -3.1620062953        2.1027205305
 H        -2.0809355451       -3.2263805205        0.9786868755
 H        -0.4782572147       -2.6440367472        0.4807362282
 H        -3.8957560740       -1.0826811197        5.4865539655
 H        -3.0876108101       -2.5979030623        5.8489106865
 H        -1.5767006464        2.7979017735        7.1909056559
 H        -1.6752700668        2.0067820255        5.7154456673
 H        -2.5261753807       -1.8856044684        8.0272918182
 H        -1.3021632819       -1.2624619757        9.0266311878
 H        -0.8458264160       -2.4621711738        7.6543710483
 H         0.2292400550        1.0400408687        7.5753874401
 H         0.9010588557       -0.5543224539        7.0672550266
 H         0.2558868774        0.4735974393        5.8327305441
 H        -3.8122086734        3.6480393231        7.2052555735
 H        -4.4422910813        2.0781234777        6.7873429243
 H        -4.8441742815        3.1880093039        2.2955638612
 H        -5.9880899569        4.4490271992        2.0202010860
 H        -6.5280275912        3.6949567819        4.1230693912
 H        -6.8344122618        5.2657258057        5.0146069790
 H        -6.3218972427        3.6412934469        5.9227032520
 H        -3.2481395426        5.9263911294        5.9043356179
 H        -4.7855776812        6.6812667427        5.3394850470
 H        -4.8411833500        5.5405251932        6.7868627377
 H        -5.0702698805        5.2308531650        0.2349963806
 H        -3.5295780736        5.3494637057        0.8948982024
 H        -0.9877356571        4.5548772765       -2.7031159781
 H        -0.1942607753        5.5816821997       -1.5519949336
 H        -2.1899102455        2.7380920552       -3.1143653975
 H        -3.8531587613        3.1877590521       -3.3092756437
 H        -3.3293079406        1.8322447198       -2.2799649221
 H        -2.6479109408        5.4241768616       -2.8415055187
 H        -4.3726726288        5.4665661141       -2.4350641193
 H        -3.3033398310        6.1313651331       -1.3647767105
 H         0.5799561824        2.5804047759       -1.9450509464
 H         1.2879610531        3.6670899703       -0.8066642636
 H         3.0124681004        2.3952223837       -2.1924271346
 H         4.3434610967        2.6350100789       -3.3350456115
 H         3.3154685199        5.4548358701       -4.3549805332
 H         4.4982451805        6.2983837445       -3.4495669937
 H         2.8987365718        6.9091319403       -3.5765745610
 H         1.9259667878        5.7786272506       -0.3428226052
 H         3.5519590811        6.2934728622       -0.5071137290
 H         2.4866251700        7.1838775859       -1.3872697224
 H         5.7549525828        1.4436517327       -2.1343801284
 H         5.4757968415        2.3551239349       -0.6818453241
 H         4.0208107608       -1.1514100355       -3.0183686466
 H         5.2474035129       -2.3991780954       -2.9160239033
 H         7.0368461198       -0.1955231983       -0.0482783607
 H         6.4884599819       -0.7770832481       -1.7601794812
 H         6.7236092151       -1.9184851526       -0.4184178714
 H         3.5484424454       -1.1152598775        1.4156831802
 H         5.4497617903       -1.1037821658        1.7025914690
 H         4.4963798884        0.4312566044        1.5271983490
 H         2.4490364779       -3.4784058721       -2.4717003987
 H         3.8283447620       -4.2490654383       -3.2669750989
 H         0.2283569617       -4.2389244160       -3.2021120282
 H         0.0012648911       -3.6198104780       -4.7609383420
 H         1.3020690885       -4.5612089439       -7.1731572011
 H         2.7491361991       -3.4048897285       -7.3784741024
 H         1.3130762531       -2.8237755188       -6.6029099610
 H         3.7916879255       -5.8115511116       -6.1827054956
 H         4.7033594205       -4.3685966518       -6.3839149506
 H         4.5878088771       -5.2072786772       -4.7711769614
 H        -0.5579918870       -6.4966822056       -4.0711547604
 H        -1.7589419553       -5.2167621119       -3.5000134444
 H        -4.1254806207       -9.2637195973       -4.4764730814
 H        -5.3963548499       -8.0334076479       -4.6654730039
 H        -4.5230262114       -8.5811319405       -5.9708714517
 H        -4.0652880935       -5.0117538523       -6.6401696002
 H        -4.3473647476       -6.5859130084       -7.4265304568
 H        -2.9290244101       -5.6273940197       -7.8149276060
 H        -2.6118378522       -8.5888246606       -7.1369097365
 H        -1.1614037589       -7.5880384124       -7.1651848396
 H        -1.6310177622       -8.4220400198       -5.7061828605
 Na       -2.5668190914        2.1574955159        1.9485124711
