155

 C         1.1092315263       -0.8886355774        1.3973720071
 C        -0.3670290469       -0.3546520129        1.3514698429
 C        -1.6010652659       -1.4814759323        1.1814085113
 C        -2.5890676246       -1.2862317987        2.4251745721
 C        -2.5827493617       -2.2120680118        3.6443400580
 C        -2.4488322401       -1.1966747802       -0.1208722483
 C        -1.1850859663       -2.9651937153        1.1621593374
 O        -0.6009134161        0.7942800402        1.3150731115
 O        -3.3600579052       -0.3565828188        2.2897225777
 C        -2.8021393209       -1.4174544043        4.9232127904
 C        -1.5711569260       -0.6081795560        5.2441922357
 C        -1.1947366476       -0.0269271881        6.7265533513
 C        -2.4209732652        1.0466204700        6.9992760504
 C        -2.4853580879        2.3616297935        6.2770457302
 O        -0.8389259842       -0.3751153531        4.3291818317
 O        -3.2746622544        0.6854734287        7.7879932421
 C        -1.3341097671       -1.2358936869        7.7280379482
 C         0.1106949714        0.7574144811        6.5946736822
 C        -3.8884319563        2.8844355884        6.1551799063
 C        -4.1929965991        3.5218511925        4.7591421666
 C        -5.2536990654        4.7079908870        4.5879653295
 C        -5.0450299246        5.3291120546        3.1135969647
 C        -5.6972641141        4.5798797855        1.9398651223
 C        -6.6365180430        4.0685275185        4.7657397332
 C        -5.0447985786        5.8898130964        5.5715584858
 O        -3.6428670591        3.1123082151        3.7489334547
 O        -4.4237004062        6.3795746366        2.9510741480
 C        -5.0949658511        4.8005465987        0.5186792781
 C        -4.2368224407        3.6057752764        0.1356694088
 C        -3.2339710566        3.7903001686       -0.9901270687
 C        -1.7843097195        3.7560427903       -0.4333789478
 C        -0.6154001179        4.1771133637       -1.3381774569
 O        -4.4059182975        2.4664217981        0.6424420468
 O        -1.6013104736        3.4500471132        0.6941930073
 C        -3.2371070008        2.5809674403       -1.9879917994
 C        -3.4313366671        5.1601204719       -1.6984660659
 C         0.7894208148        3.8328535441       -1.0739512838
 C         1.6578631690        4.1733859846       -2.3175827158
 C         3.0204510372        5.0539376998       -2.1446522905
 C         4.1273302539        4.1618667132       -1.4510336062
 C         4.4531716025        2.7554420390       -2.0137610296
 C         3.4092992050        5.5726113834       -3.5030660550
 C         2.9254852554        6.3554831634       -1.1902991901
 O         1.4272237360        3.6607867746       -3.3881215024
 O         4.6894148185        4.6454427415       -0.5205566192
 C         5.2439278281        1.8308169973       -0.9723661017
 C         4.2543923502        0.6446639488       -0.5048848071
 C         4.8928146468       -0.8818073543        0.0157258389
 C         4.0601466502       -2.0760136030       -0.5975683470
 C         4.0701199472       -2.2134180589       -2.1242542202
 O         3.0718341147        0.7388657642       -0.5519046923
 O         3.4029912176       -2.8341677053        0.0780588228
 C         6.3896419435       -1.0679844687       -0.3107708735
 C         4.6791775054       -0.8696508415        1.5499073871
 C         3.4490656160       -3.4432337864       -2.7982164029
 C         2.8948191561       -2.9737865161       -4.1350058450
 C         2.6543933166       -4.0665320661       -5.2669694215
 C         1.6030576564       -5.1595340472       -4.9739299737
 C         0.4538638722       -4.7374214308       -4.0869791975
 C         2.2670602805       -3.4348837714       -6.6857918797
 C         4.0017210763       -4.8291319862       -5.4612696583
 O         2.6652446409       -1.7528675736       -4.2904824811
 O         1.6134718372       -6.2484206909       -5.5999489211
 C        -0.7621223868       -5.5819690511       -4.2672364664
 C        -1.3951380490       -5.4588032538       -5.7316911987
 C        -2.3864563797       -6.5552231543       -6.1941332446
 C        -3.3854102394       -6.7929739395       -5.0008962589
 C        -3.9465427114       -8.2089608782       -4.8178935477
 O        -1.1267472868       -4.3935645371       -6.3609020554
 O        -3.6060863823       -5.9369347805       -4.1692116288
 C        -3.1861463463       -6.0266369908       -7.3967334862
 C        -1.5301837614       -7.7873185512       -6.6309565543
 H         1.2436515625       -1.5683544288        0.4906159849
 H         1.8024547681       -0.0661421453        1.4155400089
 H         1.3705165344       -1.5165406743        2.2019048723
 H        -3.3685943849       -2.9419306867        3.5029236739
 H        -1.6537634706       -2.7826702592        3.7006653971
 H        -1.9539311200       -1.5854695434       -1.1038547760
 H        -2.6673008945       -0.1529867733       -0.2106851914
 H        -3.4361809189       -1.6411770616        0.0210980003
 H        -0.3472659408       -3.2481319740        1.8530139432
 H        -2.0395917922       -3.5787920111        1.2650559342
 H        -0.9301440915       -3.2568358358        0.1324139403
 H        -3.6359273668       -0.7292915944        4.9009093725
 H        -3.0613162411       -1.9820563869        5.7886043849
 H        -1.7537497647        2.9891726897        6.9147397669
 H        -2.0823332534        2.2997970035        5.3126953550
 H        -2.2918029190       -1.1696555399        8.2571945744
 H        -0.5179523122       -1.2099822799        8.4406182104
 H        -1.4955168856       -2.1965843411        7.2772237809
 H         0.6689157539        1.0032905057        7.4717151590
 H         0.9010650107        0.2385175867        6.0555244724
 H        -0.1104004045        1.6946367024        6.1392182659
 H        -3.9892963626        3.5551864457        7.0656062957
 H        -4.5422882754        2.0442115565        6.1513196962
 H        -5.8096359376        3.5479015443        2.1677692404
 H        -6.7826247516        5.0367655485        1.8918115543
 H        -6.6647562864        3.2983142745        3.9959239704
 H        -7.4137387000        4.8975837825        4.6914828817
 H        -6.7455272033        3.6867241660        5.7134604176
 H        -4.3262103596        6.6254820760        5.1775175293
 H        -6.0133454929        6.5521034427        5.6508221916
 H        -4.7824252030        5.4485749163        6.5729827582
 H        -5.9323838727        4.8052648222       -0.2254652641
 H        -4.5425861965        5.6859203800        0.4825481527
 H        -0.8697701458        4.0056213697       -2.4004657990
 H        -0.7636602562        5.2621693663       -1.3251273346
 H        -2.9737942443        2.7456031488       -3.0231274827
 H        -4.0626657248        1.9423073175       -1.8117359926
 H        -2.4224165111        1.8513398659       -1.6926900448
 H        -2.7689218024        5.2252300055       -2.6115311503
 H        -4.3807291547        5.2219834579       -2.1920223659
 H        -3.2500040625        6.0390554788       -1.0749733705
 H         0.9263660642        2.7322834919       -1.0061565490
 H         1.2633114309        4.3731283199       -0.2113127133
 H         3.6338161244        2.1923448834       -2.5485667402
 H         5.2303985200        3.0071508063       -2.7800890009
 H         3.6687073331        4.8817042427       -4.2302119618
 H         4.2825829111        6.1470094412       -3.3889896712
 H         2.6884403217        6.2613148920       -3.9789418242
 H         2.4543705099        6.2463411397       -0.1504645064
 H         3.9337227037        6.5697695694       -0.8816646835
 H         2.2648661539        7.0850785986       -1.5619390318
 H         6.1569798184        1.3375823400       -1.3934843437
 H         5.3105719073        2.4310426009       -0.0695689110
 H         3.4496757953       -1.3704853336       -2.3909189454
 H         4.9358865345       -1.8037817204       -2.5864907375
 H         6.9712207301       -0.4352066554        0.4131089531
 H         6.7647592428       -0.7054352850       -1.3644919631
 H         6.6697285045       -2.1131841162       -0.0585611275
 H         3.7518898268       -0.3912227053        1.7439628501
 H         4.7994708957       -1.8978062988        1.9747280291
 H         5.5864105102       -0.3100152227        1.9566316632
 H         2.6625680394       -3.9263732069       -2.3010642585
 H         4.1343087432       -4.2092193936       -2.9754071249
 H         0.7932130792       -4.8125837139       -3.0610369261
 H         0.2538122817       -3.6670595260       -4.1559244790
 H         2.2951109885       -4.2833080672       -7.3727669121
 H         3.0008636185       -2.6508191027       -6.9851174528
 H         1.2255773020       -3.1549573171       -6.6821437838
 H         3.9495012963       -5.4579963137       -6.3528571404
 H         4.8043951312       -4.0603297996       -5.5231891769
 H         4.3822800586       -5.4799351649       -4.6520156904
 H        -0.6718942860       -6.6738818317       -4.1366439553
 H        -1.4346744185       -5.1974361572       -3.6076978010
 H        -3.2094023032       -8.8968200997       -5.1179864021
 H        -4.3671988370       -8.5395150617       -3.9083500889
 H        -4.8664934740       -8.3895110466       -5.4278398540
 H        -3.8579112512       -5.1954342411       -7.2050216234
 H        -3.6685393366       -6.8759204841       -7.8042911023
 H        -2.4965417681       -5.6871192261       -8.1048692392
 H        -2.2073665997       -8.3399486208       -7.2149507849
 H        -0.7177256560       -7.4098873302       -7.2677716141
 H        -1.1757272986       -8.3096382759       -5.7879795150
 Na       -2.5620977647        1.7174237737        1.8740248328
