155

 C         0.0720188025       -8.8813519700        1.1158131260
 C        -1.0330659728       -7.9147773941        1.2573811688
 C        -1.9592955547       -7.6195438046        0.0591070562
 C        -2.9324966390       -6.3930043075        0.4491407772
 C        -4.2470574473       -6.6741515404        1.0958449263
 C        -1.0324214800       -7.2674757270       -1.1301649591
 C        -2.8231960898       -8.9848840071        0.0136769031
 O        -1.3160040619       -7.4808695750        2.3576060606
 O        -2.4744987752       -5.2400127021        0.5834719353
 C        -4.7412980576       -5.4563721021        2.0376832387
 C        -5.3962717688       -4.2622550492        1.2557669397
 C        -5.0542698081       -2.6974196955        1.6111934510
 C        -3.7642955031       -2.3596097736        0.8212350777
 C        -3.7137583912       -2.7873401514       -0.5921656001
 O        -6.0427796709       -4.4722257716        0.2589928261
 O        -2.8351289939       -1.7001932183        1.3245680181
 C        -6.0732283329       -1.8347659948        0.9683651196
 C        -4.8808911800       -2.4208865139        3.1933403573
 C        -2.2681463668       -2.6493035691       -1.1310019449
 C        -1.6629946668       -1.1997642067       -1.1616692060
 C        -0.1308686802       -1.0423523272       -0.8305400392
 C         0.4677160267       -0.4613126012       -2.1495656295
 C         1.7421857974       -1.1891504170       -2.7369867764
 C        -0.0632161053        0.0041831487        0.3157494149
 C         0.4574118505       -2.3893880574       -0.3544739895
 O        -2.3614251185       -0.3016378976       -1.4931477662
 O        -0.0181376584        0.3682728684       -2.8741079007
 C         2.5343339014       -0.3557548024       -3.7494596953
 C         1.9037051842       -0.1862633562       -5.1105353285
 C         2.0328701767        1.0225179059       -6.1720359787
 C         0.6545700929        1.5956294387       -6.5188467791
 C        -0.4567862372        0.7838492569       -7.0598617702
 O         1.1266476443       -1.1232923642       -5.3777838483
 O         0.5048814935        2.8161646359       -6.4013467406
 C         3.0628286340        1.9916398575       -5.6179143310
 C         2.5248183116        0.4354863853       -7.5476181534
 C        -1.7399547659        1.6308446421       -7.1920431320
 C        -2.1473758732        2.1516285531       -5.7968477856
 C        -2.6977481270        3.6115594677       -5.4568259205
 C        -1.8916949383        4.2322963254       -4.2564988529
 C        -0.6130910001        5.1276908645       -4.5609704013
 C        -2.5483778175        4.5247632865       -6.6925391879
 C        -4.1855764853        3.5195780884       -4.9379762660
 O        -1.9192612545        1.4063528977       -4.8772130187
 O        -2.2061799965        4.1499120245       -3.1376780103
 C         0.0435608303        5.5959048333       -3.2868989602
 C        -0.0109911765        4.5335293841       -2.1144049890
 C        -0.3909750006        4.9734080087       -0.6046740415
 C        -0.7412434847        3.6978406240        0.2602432055
 C        -0.4853047317        3.8158093719        1.8157506335
 O         0.2856104272        3.3910741192       -2.4103364281
 O        -1.4473658985        2.8644877444       -0.2536122472
 C         0.7783719044        5.9178903279       -0.1780579100
 C        -1.7278667283        5.7303371485       -0.6164091511
 C         0.9432315716        3.8617328104        2.3626817185
 C         1.9561304528        2.7389616239        1.9743943945
 C         3.2564275446        2.5554907364        2.8942278982
 C         2.7600161412        1.6316269696        4.1043536027
 C         3.4090790725        0.2712024885        4.3674547221
 C         4.3818855185        1.7804934682        2.1538333092
 C         3.6842918399        3.9670961400        3.4274570274
 O         1.8393166703        2.1374638793        0.9329162570
 O         1.7223704559        1.8819206768        4.7200512576
 C         2.9426649041       -0.3279405612        5.7843437535
 C         4.0635497509       -0.1658127742        6.8357223742
 C         3.7942959313       -0.2000719181        8.3182272757
 C         3.0174297526        1.1054599004        8.7490008299
 C         2.5063344727        1.1812106657       10.1622449604
 O         5.2198973589       -0.0813532801        6.3850781880
 O         2.9731787117        2.0327371610        7.9782730239
 C         2.9376718811       -1.4573822532        8.5523743070
 C         5.1101950824       -0.2226049687        9.1463973131
 H         0.0685595415       -9.3367770181        0.1538903659
 H         1.0285883134       -8.3629744132        1.2923603175
 H         0.0483249827       -9.5737307944        1.9004762376
 H        -5.0715565225       -6.9872484688        0.4654640415
 H        -4.0658398971       -7.4973132399        1.8066559023
 H        -1.4898024365       -6.8525176704       -2.0239574672
 H        -0.5357739863       -8.1512664371       -1.4853868359
 H        -0.2791553665       -6.5390832029       -0.9067603925
 H        -3.5022461920       -9.2972397006        0.7684185136
 H        -3.2983863709       -9.1351517709       -1.0044844130
 H        -2.0659678159       -9.7718195497        0.1039821615
 H        -5.5063604423       -6.0550247872        2.6823321129
 H        -3.9457882984       -5.1135379597        2.7160063237
 H        -4.1446543373       -3.7450358622       -0.8016306756
 H        -4.3768172523       -2.0502347964       -1.1077335897
 H        -5.7335958657       -0.8198818026        0.7748850108
 H        -6.9638812409       -1.7898846343        1.6143007622
 H        -6.3974087381       -2.1294728965       -0.1033691862
 H        -3.8384411369       -2.7481662235        3.3823216304
 H        -4.9492519260       -1.3953483985        3.5245537909
 H        -5.6284136986       -2.9902885870        3.7081914510
 H        -2.1800955686       -3.1250589618       -2.1619809886
 H        -1.7475469661       -3.3152499690       -0.4802991952
 H         2.4107223690       -1.5024133790       -1.9612292453
 H         1.3345777043       -2.0383894443       -3.2163074301
 H        -0.9819511296        0.2162581774        0.7026717904
 H         0.4768870242        0.8481117289       -0.1886428811
 H         0.5650050950       -0.2536238284        1.1879499809
 H        -0.1473255709       -3.0972825764        0.2571372620
 H         0.7705469459       -2.9386805983       -1.2337962144
 H         1.2988380860       -2.2334059488        0.2129798297
 H         2.6923215085        0.6260625222       -3.2503419485
 H         3.4992191353       -0.8328834508       -3.8864398931
 H        -0.1623796446        0.3831435121       -8.0620043114
 H        -0.8085424456       -0.0427204070       -6.4547119444
 H         2.7682706559        2.4921710534       -4.7685221881
 H         3.2423087738        2.6833752079       -6.4217556242
 H         3.8812175614        1.4065801085       -5.3513901413
 H         2.6738652284       -0.6686850251       -7.4792502897
 H         1.7302836080        0.5095168980       -8.3080545096
 H         3.4693681505        0.8928441910       -7.8020476979
 H        -2.5132590612        0.9215127275       -7.5064343092
 H        -1.5544723365        2.2861782638       -8.0931673294
 H         0.0300567538        4.4152950291       -5.0494301783
 H        -0.9565693522        5.8924502167       -5.2896979152
 H        -1.5120991894        4.3785671415       -7.1795060396
 H        -2.8532666628        5.6163468969       -6.5608048260
 H        -3.2953228835        4.1224285881       -7.4517398200
 H        -4.3586173851        4.4761815108       -4.4950696485
 H        -4.9858781443        3.1995893730       -5.6744643842
 H        -4.2378629448        2.9001009854       -4.0614075841
 H         1.0893263037        5.7759830231       -3.4661623095
 H        -0.3386865467        6.5542925210       -3.0398223448
 H        -0.9363853143        4.7622626419        2.1857806867
 H        -1.0908585344        3.0078542449        2.3598425772
 H         1.6671062810        5.2877420909       -0.1853469039
 H         0.7917467462        6.3424757450        0.8017458319
 H         0.9898803712        6.6798493130       -0.9608300183
 H        -1.8708155515        6.4472587384       -1.4891173841
 H        -2.6415887675        5.2073881568       -0.8031931855
 H        -1.7316613983        6.3211030169        0.3103047313
 H         0.9611859201        3.8490617325        3.4617978196
 H         1.3792203551        4.8277746882        2.1183957705
 H         2.9137171413       -0.3897584358        3.6473165014
 H         4.4902105730        0.2588319660        4.2110020815
 H         4.1168483560        0.8225402708        1.7597067356
 H         5.2644490501        1.6722798056        2.8183090663
 H         4.7170464525        2.2626537675        1.2784143603
 H         4.7443865647        4.1222990132        3.4480124166
 H         3.1139038514        4.8884502395        3.0975117746
 H         3.4918990787        3.9158068493        4.5013094142
 H         2.1314183563        0.3314024656        6.0098450098
 H         2.6889913642       -1.3497182919        5.6675317764
 H         2.9595087998        2.0229734203       10.5943442536
 H         1.4485115690        1.4385563531       10.2326119078
 H         2.7259395609        0.2963133035       10.7158831512
 H         2.7738211296       -1.5920512771        9.6304718334
 H         3.4958160395       -2.3845024325        8.2702870054
 H         2.0373889575       -1.2920250388        7.9180272485
 H         4.9974556116        0.1302684321       10.1660188114
 H         5.3852671440       -1.3037504421        9.3335518108
 H         5.8838528569        0.3812209550        8.7057613104
 Na       -1.6048341941        1.8891667968       -2.4877173538
