155

 C        -0.1162700907       -2.3780850469       -1.4722539270
 C        -1.0646766285       -1.7027717200       -0.5762063513
 C        -1.9998885328       -2.5385402377        0.4454651131
 C        -2.0081728148       -1.8036311547        1.8906595138
 C        -1.4865984231       -2.4729514401        3.1245603093
 C        -3.4602446665       -2.3714268866        0.0080215755
 C        -1.5297137969       -4.0939874856        0.4676309920
 O        -1.2323565315       -0.4631871866       -0.6643311853
 O        -2.6748806217       -0.7421926632        1.9936513569
 C        -1.8629227611       -1.7058504716        4.4300918671
 C        -1.0255086743       -0.3993883381        4.6627252060
 C        -1.5553326271        0.6136558499        5.7616995563
 C        -2.7697329654        1.5056366547        5.0787907500
 C        -2.5995269130        2.3439149023        3.7167093296
 O         0.0886697158       -0.3129923101        4.1828131342
 O        -3.8460273777        1.4038598008        5.6560900168
 C        -2.0809245495       -0.1437272645        6.9357678700
 C        -0.3791293754        1.5196444984        6.2003204346
 C        -3.8939065522        3.1212694291        3.3814168003
 C        -4.7537123268        2.4107416418        2.3477499106
 C        -6.1140747741        3.1155283978        2.0343782112
 C        -5.8281410345        3.7974080081        0.6496440149
 C        -6.5896520122        3.1092842395       -0.5694661143
 C        -7.2757727814        2.2349608542        1.9948679150
 C        -6.4864737126        4.2476273880        3.1242606232
 O        -4.5267360560        1.3524373861        1.8203830186
 O        -4.9850968081        4.6740928177        0.5787156586
 C        -5.9174342259        3.4870605531       -1.8793075858
 C        -4.5095793036        2.8124757097       -1.8158970764
 C        -3.2862506181        3.5359967513       -2.2353756472
 C        -2.5515782285        3.9800208454       -0.8465425450
 C        -2.0560124387        5.4279528693       -0.9736504896
 O        -4.4892869189        1.7740578091       -1.1520998812
 O        -2.2552684129        3.3256720053        0.0948474227
 C        -2.2506009205        2.5634882337       -2.9430438933
 C        -3.6625108248        4.7363280577       -3.1907648472
 C        -1.0806463058        5.7080814648        0.2455457968
 C         0.0870053533        4.6836623049        0.2369110650
 C         1.0739432376        4.8875312427        1.5102071932
 C         1.4463521485        3.5374563607        2.2342298028
 C         1.9330807109        2.4058571595        1.3198313647
 C         2.3974399486        5.4824364576        0.9529378493
 C         0.4431606999        5.7766544000        2.6589752286
 O         0.4207607902        3.9925520802       -0.6748056167
 O         1.2766214114        3.4849972193        3.3872465354
 C         2.5901577644        1.2532199598        2.1148569332
 C         2.7833428950       -0.0588973626        1.3931985117
 C         3.9235186743       -1.0076935986        1.9479560244
 C         4.0400859342       -2.0956374173        0.8750152937
 C         4.7576830960       -1.6410225708       -0.3996461609
 O         2.0350321463       -0.4302564197        0.4939069929
 O         3.4100352657       -3.1204643432        0.9695662390
 C         5.2613288492       -0.2448082071        2.1420436822
 C         3.4756386604       -1.6311002498        3.3505698376
 C         4.6020273520       -2.5009610052       -1.6272185040
 C         4.4494452206       -1.8413993394       -3.0465111002
 C         5.2152282845       -2.4070938640       -4.2027836903
 C         4.4448716512       -3.8434612023       -4.5498127683
 C         2.9135010801       -3.7160913876       -4.7067331558
 C         5.1469752468       -1.4313747357       -5.5527121572
 C         6.7047007174       -2.7955816974       -3.9573038238
 O         3.7649370930       -0.8916709270       -3.1814057509
 O         5.0348512236       -4.9054191476       -4.5486616635
 C         2.1542317136       -5.0338793577       -4.6611958580
 C         0.6755120546       -4.7392219155       -4.8166015300
 C        -0.1100748822       -5.2658163269       -6.0218413581
 C        -1.6070954337       -5.0837108816       -5.7139467604
 C        -2.5059999555       -4.1281367691       -6.5826454360
 O         0.0768307879       -4.2856877702       -3.8748536406
 O        -2.0538950017       -5.4858302038       -4.6443032556
 C         0.2965944193       -4.6112327076       -7.3252865490
 C         0.1180728768       -6.8524850081       -6.1616523078
 H        -0.7676626884       -2.6229804677       -2.2784842220
 H         0.6804721608       -1.6672831864       -1.8780667289
 H         0.3975455988       -3.2349232370       -1.1374495165
 H        -1.8192418302       -3.5299191044        3.1346196831
 H        -0.3655039038       -2.4511309622        3.1812546613
 H        -3.7839973036       -1.2875704886       -0.0438290116
 H        -4.0837605173       -2.7108295582        0.7736940019
 H        -3.6638675431       -2.7673585734       -0.9259972522
 H        -0.5318922465       -4.3519403800        0.5905285247
 H        -2.1713289925       -4.6035317600        1.2673050087
 H        -1.8081794077       -4.5251571057       -0.4923318578
 H        -3.0015905218       -1.5730808766        4.4014094947
 H        -1.6114530261       -2.4561040533        5.1984031628
 H        -1.7420141233        2.9738081626        3.9885888311
 H        -2.1954569982        1.5057580999        3.0400843495
 H        -2.9171935726        0.3130698006        7.3666689521
 H        -1.2924191635       -0.1692235462        7.6676399848
 H        -2.6590501635       -1.0718409384        6.8153630319
 H        -0.6552481115        2.2628204620        6.8774810326
 H         0.3854346593        0.9300813838        6.6225999053
 H         0.0403689552        2.0093098116        5.4167946003
 H        -3.6678229443        4.1150567293        3.0371561314
 H        -4.5158148462        3.2381043063        4.3320718280
 H        -6.6554859909        1.9297829138       -0.5061341481
 H        -7.5759026662        3.4916634663       -0.4543867341
 H        -7.0934634458        1.2941436359        1.4779994972
 H        -8.1195480478        2.7358043057        1.4673444424
 H        -7.6164396095        2.0622065419        3.0632493950
 H        -5.7853225764        5.0636427300        3.1387714348
 H        -7.5190630641        4.6613556810        2.8678360111
 H        -6.5463719757        3.8000436122        4.1306351003
 H        -6.5389427861        3.1685429541       -2.7209008929
 H        -5.8408343751        4.5617105523       -1.9811973263
 H        -1.6051711348        5.8361453506       -1.9162600408
 H        -2.9691592151        6.0780821052       -0.8176916300
 H        -1.6814348564        2.0155713404       -2.2128548095
 H        -1.5490243191        3.1414895398       -3.5333754208
 H        -2.6185923659        1.8102664218       -3.6346271089
 H        -2.7981066341        5.0187870807       -3.7722087980
 H        -4.3758558978        4.4385601234       -3.9106406658
 H        -4.1381949976        5.5268371245       -2.5970497123
 H        -1.6723414256        5.4856274952        1.1376426731
 H        -0.6296170391        6.6662475911        0.2036129333
 H         1.0736440254        2.0386433616        0.6754753024
 H         2.5220264919        2.8409846721        0.5478561570
 H         2.6459614840        4.8738924292        0.0679790037
 H         3.2263024782        5.3654602388        1.6704331336
 H         2.3629392494        6.4867570497        0.7077934215
 H        -0.3344960050        5.3387900242        3.2207816019
 H         1.1092594022        5.9733215664        3.4650046218
 H         0.1459143273        6.7985439719        2.3695285925
 H         3.5434865561        1.4905375012        2.7055311143
 H         1.7883844971        0.9434420847        2.8775587819
 H         4.4370597319       -0.6103687540       -0.6877683695
 H         5.8300657036       -1.5365260148       -0.2020720741
 H         5.3641298478        0.5190316488        2.9725159485
 H         5.5120338614        0.3183958439        1.1519854878
 H         6.0316218920       -1.0533183801        2.1600320792
 H         2.6563768132       -2.3157606866        3.2334944744
 H         4.3069194189       -2.2858065910        3.7596091273
 H         3.1104227589       -0.9351274827        4.1756823058
 H         3.5978264493       -3.0115921806       -1.5031253380
 H         5.3989295513       -3.2477129396       -1.7648055564
 H         2.4868180758       -3.1022144469       -3.9810346401
 H         2.7966458092       -3.0973140393       -5.6277052004
 H         5.6701297517       -1.9903379717       -6.3400592654
 H         5.5624298551       -0.4451003018       -5.2844138139
 H         4.1441507684       -1.1635400928       -5.8530023742
 H         6.8499852844       -3.4816452962       -3.1660606054
 H         7.0842924457       -3.2047772780       -4.8802866664
 H         7.2967435853       -1.8798553610       -3.8479955345
 H         2.5626054762       -5.6185176788       -5.4775986654
 H         2.3362751416       -5.6366392149       -3.6527479052
 H        -3.5370486632       -3.8807653869       -6.1838358658
 H        -1.8736768339       -3.2227175036       -6.6800748100
 H        -2.7107277422       -4.6604498936       -7.4856203449
 H        -0.0449597188       -3.6126198384       -7.2635249986
 H        -0.1617290273       -5.2169425721       -8.1179373085
 H         1.3386979421       -4.6530080573       -7.4177268477
 H        -0.7890249929       -7.3476176840       -5.7352057370
 H         0.0630504131       -7.1729711900       -7.1639078658
 H         1.0490671788       -7.1703094581       -5.7444252504
 Na       -2.9046869972        0.8761785794        0.2515595988
