155

 C        -0.2365394564       -2.4409419711       -1.2893097319
 C        -1.1022944731       -1.6263196176       -0.3107055957
 C        -2.1678897141       -2.5332892275        0.4774183860
 C        -2.2911140163       -1.8124723198        1.8954854024
 C        -1.5220798362       -2.5430677612        3.0418973797
 C        -3.5700960648       -2.5307595399       -0.3024190111
 C        -1.6780728038       -4.0037597476        0.6198375346
 O        -1.0367857076       -0.4320148347       -0.3545711936
 O        -2.7834605548       -0.7326082409        2.0206240419
 C        -1.7815653355       -1.7475102652        4.4048504548
 C        -1.0728861172       -0.4051985909        4.4329527916
 C        -1.6865869656        0.5543837849        5.5331698677
 C        -2.8814156562        1.3828792524        4.8814330317
 C        -2.4512107214        2.2515501811        3.5241560005
 O        -0.1970678248        0.0183792534        3.6948981928
 O        -3.9819350463        1.5042715167        5.3140194873
 C        -2.3073819043       -0.1530563555        6.7609929567
 C        -0.5954465727        1.5129700826        5.9961829343
 C        -3.5934525482        3.1659334509        3.1616640928
 C        -4.7913194175        2.4646443323        2.4288000607
 C        -6.1769332542        3.1294467753        2.0837721248
 C        -5.9572716616        3.7093240487        0.6631121197
 C        -6.8216038519        3.1486798608       -0.5520985780
 C        -7.2182215275        1.9845931311        2.1700897840
 C        -6.5574885044        4.3458785173        2.8878766864
 O        -4.6303584812        1.4002599751        1.8569869728
 O        -5.2098607055        4.6408956512        0.4821145895
 C        -5.9638930505        3.2846782144       -1.8470636264
 C        -4.6051573226        2.6733278432       -1.8817331329
 C        -3.3454517676        3.5480335094       -2.3114926438
 C        -2.5324882051        3.9160240461       -0.9828355119
 C        -1.9907401588        5.3577437382       -0.7518249607
 O        -4.4583688538        1.5037379141       -1.6637461247
 O        -2.5820903232        3.0995960713       -0.0356569894
 C        -2.4252226052        2.5829750572       -3.1193688324
 C        -3.6948843581        4.7955538287       -3.1099594493
 C        -1.1747523158        5.5906640108        0.4455776714
 C         0.1819387179        4.8214222422        0.4863861228
 C         1.0468417710        4.9771141431        1.7078671588
 C         1.3155848343        3.4881099586        2.3816540697
 C         1.8319092095        2.2005555441        1.6041033985
 C         2.3715316082        5.5202855385        1.1945664083
 C         0.4868213311        5.9916425527        2.7518996081
 O         0.4668454765        4.1811978487       -0.5359443198
 O         1.1878801784        3.3934910681        3.6200963758
 C         2.6142543919        1.2686745319        2.4839476207
 C         2.9436955733        0.0284189895        1.6605252661
 C         4.1194212280       -0.9914996719        1.9943628262
 C         4.0209944824       -2.1175620073        0.7778326549
 C         4.8734069506       -1.7641654459       -0.4509893774
 O         2.2271373063       -0.1561829754        0.7338473642
 O         3.3782852870       -3.1632970636        0.8948656827
 C         5.4527557103       -0.2933905161        2.0187060716
 C         3.9128655553       -1.7247588565        3.3518310890
 C         4.5543062088       -2.7230264613       -1.6865657875
 C         4.6250813089       -1.7857886672       -2.9592907030
 C         5.2257130233       -2.3932470821       -4.2722513038
 C         4.5242220352       -3.7861008405       -4.5156135400
 C         2.9898887970       -3.6526490126       -4.7498769763
 C         4.9585641900       -1.4619722945       -5.4650088417
 C         6.7289426211       -2.6506663097       -4.0726070189
 O         4.2281773272       -0.6276815108       -2.8826073017
 O         5.0611968881       -4.8397528048       -4.6406525379
 C         2.3806174265       -5.0343805256       -4.9182783811
 C         0.8707246659       -4.8920665906       -4.7821912431
 C        -0.0036005066       -5.3719954846       -5.9082035980
 C        -1.5680990047       -4.8981238203       -5.6292319813
 C        -2.3306887510       -3.9360868737       -6.6087397714
 O         0.4012614001       -4.4121322664       -3.7578357882
 O        -2.1488167096       -5.3169010792       -4.6699274829
 C         0.5490006800       -4.6653263159       -7.2209363426
 C        -0.0039415710       -6.9309095957       -6.1126837198
 H        -0.7275774384       -3.2809876983       -1.8557945086
 H         0.2701346611       -1.8268676968       -1.9933571485
 H         0.6263094844       -2.8793830549       -0.6529654181
 H        -1.8108878571       -3.5927082806        3.1815700619
 H        -0.4785965253       -2.4879504929        2.7434720859
 H        -4.0815786729       -1.6009398130       -0.3535375628
 H        -4.2318162315       -3.1088655175        0.3916223848
 H        -3.5117578764       -2.9380497484       -1.3461991707
 H        -0.7471703593       -4.0430232730        1.2326327978
 H        -2.4004438395       -4.5451403781        1.1346448757
 H        -1.4246591367       -4.5801869395       -0.2722050119
 H        -2.8281245603       -1.6430403163        4.3535550199
 H        -1.5142450185       -2.4139996222        5.2391339253
 H        -1.5755294061        2.8416425209        3.7081948855
 H        -2.2192320408        1.4925662942        2.8566867847
 H        -2.5357741242        0.5783965075        7.6093098721
 H        -1.7346580789       -0.9117905235        7.2349789317
 H        -3.3033739122       -0.4598177322        6.4817588796
 H        -1.0960233367        2.0800369264        6.8475037439
 H         0.3838886406        1.0687259455        6.3639498791
 H        -0.3292059784        2.3304083644        5.2628275553
 H        -3.1907698865        3.9891208884        2.5272580866
 H        -3.9781195756        3.6114644986        4.0391392031
 H        -7.1799987135        2.1963949316       -0.3884895093
 H        -7.7317990677        3.7934622918       -0.7015346161
 H        -6.8958346183        1.2474099672        1.4488181115
 H        -8.2208331916        2.2937953740        1.9373051529
 H        -7.2397845988        1.5254364579        3.0392890255
 H        -5.8067585974        5.1726112599        2.8259062421
 H        -7.4011020812        4.7517892343        2.4201184840
 H        -6.9003359500        4.1504749129        3.8959438106
 H        -6.4914991733        2.9637690484       -2.7381761998
 H        -5.8199699940        4.3867269720       -1.9149885967
 H        -1.3208736415        5.6483185174       -1.5318978301
 H        -2.7731324322        6.0985355123       -0.8374646462
 H        -1.7410541408        1.9624392367       -2.5172651662
 H        -1.8110304694        3.0138457965       -3.8957231741
 H        -3.0534641176        1.8724381859       -3.6683911177
 H        -2.7638727918        5.3852300027       -3.4038216933
 H        -4.2137778682        4.5213140668       -4.0638643014
 H        -4.2964163729        5.4703573502       -2.4977737155
 H        -1.7799146976        5.1777307944        1.2408790591
 H        -0.9443571388        6.6970291507        0.4440609575
 H         0.8915373477        1.8520849319        1.2138718499
 H         2.5075960090        2.4018793556        0.7084620573
 H         2.9431663212        4.8734546936        0.5305783395
 H         2.9627236514        5.8397965009        2.0547696833
 H         2.0957368644        6.4620491839        0.5555193129
 H        -0.5022330498        5.8052834766        3.1278997325
 H         1.0590034167        6.1119006624        3.6432140967
 H         0.5367444259        6.9792837006        2.3247144117
 H         3.4486072087        1.7914048863        2.8716342788
 H         2.0926508704        0.8951840077        3.3632871242
 H         4.6783572356       -0.7277776982       -0.6676471605
 H         5.9395556683       -1.9649938805       -0.3168461803
 H         5.5383982007        0.3409730657        2.8985358919
 H         5.5338435407        0.3135805727        1.1906930066
 H         6.2891407804       -1.0081342300        1.9708090692
 H         3.1681510067       -2.5743188896        3.2637944678
 H         4.8145757317       -2.1872463204        3.6494567181
 H         3.5780198378       -1.1490530281        4.1723860260
 H         3.6064988692       -3.1888017326       -1.6212920663
 H         5.3173720594       -3.4639222194       -1.8102850482
 H         2.3655922971       -3.2707856216       -3.8933623993
 H         2.8481183070       -2.9912724190       -5.5573984024
 H         4.7474702978       -2.1277396170       -6.2797441691
 H         5.7530411943       -0.7546559539       -5.6160097863
 H         4.1057933220       -0.8078587179       -5.2747718206
 H         6.7351429408       -3.7099637909       -3.6945812751
 H         7.2806146413       -2.7351393334       -5.0367604897
 H         7.2858235284       -2.0158147788       -3.3781846077
 H         2.7605803058       -5.5011417064       -5.8614438115
 H         2.5611771486       -5.6121929925       -4.1237188826
 H        -3.0463621090       -3.5618516533       -5.9263430802
 H        -1.7072780121       -3.1184867635       -6.9427615943
 H        -2.9526107425       -4.4710539239       -7.3603235367
 H         0.5182262259       -3.5991881622       -6.9148079903
 H        -0.1303681725       -4.9247478880       -7.9954035783
 H         1.5336412271       -5.1113051864       -7.4415642805
 H        -0.3272971445       -7.5007379008       -5.2868888142
 H        -0.8459876668       -7.1561345951       -6.8240681577
 H         1.0279323701       -7.2512871923       -6.3947103713
 Na       -2.8362586370        0.9413665775        0.2285247653
