155

 C         0.2662084009       -2.4631185165       -0.8416036593
 C        -1.0184792067       -1.7643477874       -0.3370604707
 C        -2.1061982467       -2.5717687845        0.3116752122
 C        -2.2921650990       -2.0678114196        1.8386210976
 C        -1.5152043254       -2.6939846367        2.9987378295
 C        -3.4530079916       -2.4079680817       -0.3487511115
 C        -1.8506423794       -4.1104566426        0.2337268517
 O        -1.2441392382       -0.5558227375       -0.5987758384
 O        -3.1389776941       -1.1761386094        1.9574293202
 C        -1.8771981440       -1.7727283933        4.2911643427
 C        -1.5909034367       -0.2663909087        4.1102804841
 C        -1.9984863274        0.7159739539        5.1738035000
 C        -3.0548033176        1.6382517499        4.4791464014
 C        -2.5047551813        2.6535392135        3.3864958637
 O        -0.8297661596        0.1527430380        3.2263378808
 O        -4.2570704609        1.4752607953        4.6542355141
 C        -2.7542595193        0.2162731498        6.4145299281
 C        -0.7932237990        1.5482384720        5.6268188291
 C        -3.6932677970        3.2883558827        2.7515252647
 C        -4.8363181191        2.3840770607        2.1583199611
 C        -6.2126305040        3.1762491508        2.1026884334
 C        -6.1396006226        3.6428325740        0.6254616115
 C        -6.6849080100        2.5681623284       -0.4289381840
 C        -7.4678825923        2.2144812740        2.2667983571
 C        -6.3994123947        4.4376597735        2.9871066910
 O        -4.7017434938        1.3112925333        1.5676813397
 O        -5.4980632643        4.6032538405        0.3438628939
 C        -6.0608523702        3.0505323271       -1.7913283183
 C        -4.6240906455        2.6058293302       -1.9349847038
 C        -3.3644782737        3.4907020924       -2.2413769726
 C        -2.6827301553        3.7284061960       -0.8570291599
 C        -1.9830788980        5.0968859270       -0.5457317501
 O        -4.4012476180        1.4922068401       -1.6579149666
 O        -2.5033036818        2.8838774266        0.0040065848
 C        -2.3410812320        2.6318490784       -2.9877562206
 C        -3.8536068861        4.7131657198       -3.0116434231
 C        -1.2459333055        5.2233843905        0.7742292682
 C         0.2928687959        4.6536899567        0.8169950684
 C         1.1349311435        4.7888247119        2.1175528740
 C         1.2166180809        3.4084090622        2.7999685413
 C         1.7298683813        2.2780225089        1.8944113763
 C         2.5857007510        5.1987722315        1.6724412397
 C         0.6209654621        6.0065047834        2.9746100915
 O         0.7629577486        4.1552795262       -0.1635324084
 O         0.8148205101        3.2119891307        3.9068501294
 C         2.6168004854        1.3854585129        2.6420427570
 C         3.0161255579        0.1626581808        1.7141863689
 C         4.2287268881       -0.7802612368        1.9791347556
 C         4.2132096491       -1.9482167779        0.8227412212
 C         5.2108686546       -1.8552695011       -0.2790023862
 O         2.2513186549        0.0105829130        0.8092648295
 O         3.3844723933       -2.8351096386        0.9439381439
 C         5.5923429336       -0.0305530860        1.9926568198
 C         3.9975802199       -1.4429153793        3.3265034009
 C         4.8052680563       -2.5053317153       -1.6738689007
 C         5.0746798656       -1.5718587880       -2.8147275673
 C         5.3869947113       -2.2759886182       -4.2997288161
 C         4.7136906535       -3.6791410094       -4.5595705053
 C         3.2129690876       -3.7262139013       -4.8283543391
 C         4.9697096677       -1.2589628730       -5.4096726443
 C         6.9704818360       -2.5209797095       -4.3895222625
 O         5.0658823436       -0.3581231200       -2.7152965398
 O         5.3874300571       -4.6615860285       -4.5069225449
 C         2.5376641950       -5.0610439729       -4.9047413713
 C         0.9404782377       -5.0011466388       -4.7863920266
 C        -0.0235033801       -5.4405815146       -5.9889582247
 C        -1.5025508551       -4.6552722614       -5.5891684245
 C        -2.0245646367       -3.4457861658       -6.4384867642
 O         0.5040746868       -4.8913117450       -3.6546013567
 O        -2.1576422622       -4.9754325670       -4.5991854134
 C         0.4739893396       -5.0154359648       -7.4195906424
 C        -0.2357933317       -7.0302155963       -5.8702746721
 H         0.1882490140       -3.2321418526       -1.5789699921
 H         0.9798025242       -1.7699740535       -1.3403439257
 H         0.7724259398       -2.8423875116        0.1339987452
 H        -1.8087496292       -3.7466018110        2.9771673526
 H        -0.4176381217       -2.5495599594        2.9006700420
 H        -3.9023646857       -1.3495605922       -0.3310730236
 H        -4.1121095202       -3.1284789328        0.1600212807
 H        -3.4939833548       -2.7620673257       -1.3395750016
 H        -1.0007722501       -4.4255071013        0.7515046032
 H        -2.6276711895       -4.7409866537        0.6390346480
 H        -1.7814695650       -4.4402056484       -0.8197524633
 H        -2.9438779500       -1.9358960224        4.4929392330
 H        -1.2284824293       -2.1521967098        5.1065257339
 H        -1.8855769625        3.4173686640        3.8084815881
 H        -1.9580664413        2.0585710346        2.6959549218
 H        -3.0983836388        1.0577975848        6.9969025084
 H        -2.0372576055       -0.2537575772        7.0201853540
 H        -3.4104290989       -0.6302294389        6.1913703580
 H        -1.1744022411        2.4898706362        5.9616818173
 H        -0.3881435209        1.1127456755        6.5556941753
 H        -0.0538427686        1.6027019736        4.9247238067
 H        -3.3988203958        4.0177876362        1.9552643332
 H        -4.2160274129        3.8767113345        3.4612073181
 H        -6.3924949191        1.5793968385       -0.1470568103
 H        -7.7808377318        2.4744575432       -0.4528341222
 H        -7.3515589234        1.2628789908        1.8257160893
 H        -8.4194211462        2.6440581718        2.0251586322
 H        -7.4850653081        1.9727743339        3.2813092691
 H        -5.8695314920        5.2828907766        2.5098868228
 H        -7.3960786718        4.7057937761        2.9315881478
 H        -6.2716455116        4.3497459457        4.0526434581
 H        -6.5986888248        2.6213833160       -2.5937521415
 H        -6.1075680208        4.1516730637       -1.7936132453
 H        -1.2323682112        5.2827669437       -1.3294563086
 H        -2.5890228142        6.0250230640       -0.7060891865
 H        -2.3784013136        1.6249987116       -2.5892076219
 H        -1.3417496982        2.8562908380       -2.7742582886
 H        -2.4863823938        2.5797993394       -4.0719811889
 H        -3.0399363580        5.1288258497       -3.6222438386
 H        -4.6959084064        4.4797924972       -3.6034383734
 H        -4.0380231510        5.5784821460       -2.4469081517
 H        -1.8121529485        4.7143050877        1.5434733046
 H        -1.1869574828        6.3289047223        0.8868985620
 H         0.9432917029        1.6528923805        1.5604643659
 H         2.3246674324        2.7801766243        1.1180368710
 H         2.8216735207        4.8896973277        0.6742941906
 H         3.1644724684        4.6644349840        2.3582231075
 H         2.7041344283        6.3095912088        1.6902752158
 H        -0.2106524639        5.7234622646        3.5336750705
 H         1.3642584680        6.3840190244        3.5950468000
 H         0.2456195388        6.8497996218        2.3974721918
 H         3.5224007718        1.8487424114        2.9891450796
 H         2.2664061535        1.1519460067        3.6691996837
 H         5.0604846352       -0.8359776742       -0.4273916553
 H         6.2014015219       -2.1226533390        0.0898779482
 H         5.7170462684        0.4962397684        3.0059359843
 H         5.8110368638        0.6080913292        1.1150749608
 H         6.4513084432       -0.7712263750        2.1597357483
 H         2.9477636086       -1.8970262265        3.3634794598
 H         4.6984938341       -2.2637632184        3.5554593896
 H         4.1421722892       -0.7410324052        4.1760663706
 H         3.7586776907       -2.6956089041       -1.4842989447
 H         5.2372604490       -3.4470570232       -1.8642098639
 H         2.7089604205       -3.0644757736       -4.1519437537
 H         3.1508116486       -3.3149665480       -5.7686028654
 H         5.6551769355       -1.3708871734       -6.2726096159
 H         5.2385915041       -0.2721319352       -4.9382324527
 H         3.9161759238       -1.3006065722       -5.7259125802
 H         7.4787545228       -2.8708037870       -3.5308307960
 H         7.1537858677       -3.2687298427       -5.1769139198
 H         7.4204833335       -1.5893827539       -4.4711151164
 H         2.8566504899       -5.6954451193       -5.7775975199
 H         2.8329342340       -5.5645329959       -4.0553930086
 H        -3.0581864226       -3.2161669819       -6.1093705017
 H        -1.3657179077       -2.5941892913       -6.1020189735
 H        -1.8574747218       -3.5995862035       -7.5176438877
 H         0.4061841582       -3.9431538838       -7.4045649443
 H        -0.1596347785       -5.4615929797       -8.1337200472
 H         1.4496113942       -5.3933769482       -7.4664589275
 H        -0.9508699230       -7.3157214618       -5.1259040723
 H        -0.5914278704       -7.4510962595       -6.8155776685
 H         0.6345516760       -7.5149633177       -5.4446867641
 Na       -3.2917498541        0.6344930546        0.0627272241
