155

 C         0.3672318130       -2.1188554389       -0.3231860202
 C        -1.0824026169       -1.7759855828       -0.5172776385
 C        -2.1885010811       -2.7571817756        0.1762797857
 C        -2.5047840193       -2.1882817445        1.6334662853
 C        -1.6272577543       -2.5996145804        2.9105771746
 C        -3.5077014905       -2.7068037331       -0.6215017505
 C        -1.6198337529       -4.1913694114        0.1935584401
 O        -1.4052098499       -0.7282863731       -0.9529063439
 O        -3.2169318946       -1.2542922359        1.7927747402
 C        -2.0362508062       -1.8766870482        4.1620384905
 C        -1.6735770545       -0.4090118769        4.0119152631
 C        -2.2191717428        0.6644651573        5.0889352875
 C        -3.1892376057        1.5993805798        4.1871594226
 C        -2.6685274812        2.5852498276        3.1170165063
 O        -0.9802821552        0.0380390187        3.1308638093
 O        -4.3577231884        1.5274280214        4.3951044822
 C        -3.0262353676        0.0370522193        6.2711737854
 C        -1.0553944530        1.4686327684        5.6823545654
 C        -3.8200678531        3.5043098619        2.7081602330
 C        -4.9689879215        2.5905310907        2.2688415289
 C        -6.4526714828        3.2608762532        2.1315925537
 C        -6.3045184247        3.6661118137        0.5892644280
 C        -6.7066971396        2.7020547603       -0.6686699363
 C        -7.5323574410        2.2744106813        2.3984726841
 C        -6.6623434606        4.5450185151        2.9437221139
 O        -4.9042963975        1.4581303900        1.8704291645
 O        -5.7066367461        4.7488643894        0.3879153748
 C        -5.9207172599        2.9285976475       -1.9368640323
 C        -4.4672465334        2.3767631247       -1.8671473431
 C        -3.2506049852        3.3704147209       -1.9999326561
 C        -2.4344824860        3.6197302700       -0.6821721860
 C        -1.8365441677        4.9538101568       -0.4837128828
 O        -4.3572777103        1.1299443797       -1.6171183438
 O        -2.3956721342        2.7386356320        0.1808612367
 C        -2.3422008738        2.7147682254       -3.1291651703
 C        -3.6449079865        4.7703152595       -2.4658233436
 C        -1.0308665813        5.2199006489        0.8650323588
 C         0.3633289256        4.7032383851        0.7222577230
 C         1.1529674521        4.8180199235        2.0358577877
 C         1.2097386952        3.4445067871        2.6963206556
 C         1.5735968701        2.2271579320        1.8750973615
 C         2.6365609095        5.2231946719        1.8291028785
 C         0.4852389915        5.7333782527        3.1407791802
 O         0.7306326183        4.0729735932       -0.2731425245
 O         0.8141106936        3.4228724280        3.9015157814
 C         2.6777089286        1.3605733732        2.5758329489
 C         2.9610575758        0.1845422821        1.6920978160
 C         4.2273922180       -0.6909694673        1.9464683543
 C         4.3165960125       -1.8010348124        0.8603718706
 C         5.3791754595       -1.6474910576       -0.3427892541
 O         2.3518345157       -0.0429494949        0.6584406530
 O         3.4139772991       -2.6303737897        0.7753968182
 C         5.4947254391        0.2076840130        2.0998773651
 C         3.9406022652       -1.3160987690        3.3497306053
 C         4.9882081151       -2.4577087142       -1.5757435930
 C         5.2023423711       -1.5706068117       -2.8681602655
 C         5.3794127337       -2.2248208174       -4.3435837501
 C         4.6155717142       -3.6280878138       -4.5211150169
 C         3.1136863298       -3.5562308167       -4.8099630288
 C         5.0459752568       -1.1780741469       -5.3614845173
 C         6.9600422401       -2.4313784873       -4.3867694811
 O         5.4463508432       -0.3667447102       -2.7665236637
 O         5.1787979955       -4.6686971303       -4.2596774193
 C         2.5433482746       -4.9965050673       -4.8985215933
 C         1.0651892293       -4.9555174315       -4.6731006734
 C         0.0379969943       -5.4007214302       -5.8634618965
 C        -1.2651519176       -4.5790837459       -5.5051294941
 C        -1.5701685817       -3.2654277865       -6.3715404442
 O         0.5879582149       -4.8594294321       -3.5599523420
 O        -1.9567941641       -4.9885214240       -4.6251668138
 C         0.5715401146       -5.0907154944       -7.3724326550
 C        -0.3490378624       -6.9348298943       -5.6392281556
 H         0.6749996089       -2.6189799591       -1.2967944904
 H         0.9864716997       -1.2949674566       -0.4275407531
 H         0.5691766686       -2.7329947369        0.5021536583
 H        -1.5940540560       -3.7003541140        2.9679355005
 H        -0.6275155785       -2.2361477170        2.7483941919
 H        -3.6776562065       -1.7376313568       -0.8630840289
 H        -4.3349021058       -3.2215711192       -0.1901773103
 H        -3.4363728628       -3.3171953469       -1.5708208855
 H        -0.8116170415       -4.5274370848        0.9545864410
 H        -2.4327854876       -4.8390117727        0.4746198406
 H        -1.3661453483       -4.5046199500       -0.7896223027
 H        -3.0919282930       -2.0317760912        4.2735745369
 H        -1.5375931533       -2.3461224486        5.0071460095
 H        -1.8258736093        3.2024879559        3.5418767612
 H        -2.3637310286        1.8596623561        2.3197893371
 H        -3.5461961316        0.9587156168        6.6176428728
 H        -2.3865597143       -0.4446427111        7.1007532513
 H        -3.5247175521       -0.8456281021        5.9387758893
 H        -1.3620107474        2.1718657845        6.5193929610
 H        -0.3039036399        0.7895639024        6.1535515600
 H        -0.5278926406        1.9958975969        4.7652532238
 H        -3.6269213217        4.0976825559        1.8073516658
 H        -4.1548952071        4.2389580687        3.4798544631
 H        -6.7425655338        1.6295086442       -0.3837320316
 H        -7.8072641817        2.8969447217       -0.7450906882
 H        -7.3939665289        1.3592709300        1.7258385716
 H        -8.4679837295        2.7279003075        1.9824360978
 H        -7.6601379554        1.9101900133        3.3970820706
 H        -5.8902238901        5.2820910408        2.9322898146
 H        -7.5823772326        5.1793988694        2.8019418777
 H        -6.8081497189        4.2035040292        3.9772719187
 H        -6.4689399024        2.4812628651       -2.8239633537
 H        -5.8241377307        3.9988166209       -2.0015727414
 H        -1.1920157984        5.1631207080       -1.3415103404
 H        -2.5339346047        5.7359822098       -0.6086419778
 H        -1.6961202522        1.8872474618       -2.8171970777
 H        -1.6137580097        3.4414453453       -3.5971195782
 H        -2.9648877792        2.3430484083       -3.9125624801
 H        -2.8996563088        5.5222972762       -2.5004351441
 H        -4.1991290232        4.7614678457       -3.4587584495
 H        -4.4063938571        5.2487380193       -1.7718479995
 H        -1.4444137673        4.6916465390        1.7525249700
 H        -0.9353378011        6.3052590568        0.9999219066
 H         0.6439564542        1.6140014613        1.9977738084
 H         1.8845969075        2.5096312452        0.8797327902
 H         2.8359935746        4.7218448384        0.8588905998
 H         3.2937953373        4.7683782883        2.6225880823
 H         2.6910230831        6.2935045809        1.6508108212
 H        -0.6296279803        5.6093887420        3.2156507002
 H         1.0649409383        5.5186890342        4.0932393774
 H         0.5697466901        6.7741802282        2.9036899895
 H         3.6033538662        1.8823468296        2.8347679476
 H         2.5186248687        1.0038632083        3.5443947083
 H         5.4386947651       -0.5801917850       -0.7486394721
 H         6.3049100867       -2.0183149977        0.0696555417
 H         5.4506394341        0.8849221594        2.8795995076
 H         5.5917069045        0.7376998378        1.1816601639
 H         6.3582533897       -0.3711791118        2.2020611330
 H         3.1612954186       -2.0251480952        3.2223004508
 H         4.7697377248       -1.8699305721        3.7353856381
 H         3.6866674924       -0.6289684305        4.1193720129
 H         3.9524384738       -2.8310092460       -1.6389081689
 H         5.5649885557       -3.4575606211       -1.5520372639
 H         2.7947407752       -2.8488990964       -3.9916740498
 H         2.8814079869       -3.1248196564       -5.8673547796
 H         5.5938830499       -1.3252491564       -6.2801936922
 H         5.4468031942       -0.2865740335       -4.9550286382
 H         3.9658230202       -1.1796977643       -5.5562584755
 H         7.4042412305       -2.8647226244       -3.4652968316
 H         7.3099973926       -3.0221474910       -5.1953115207
 H         7.3989895878       -1.4181890393       -4.2164754001
 H         2.6303822675       -5.3774540757       -5.9415706400
 H         3.1718137028       -5.6658688352       -4.2366333810
 H        -2.5778254054       -3.0622861375       -6.1564928421
 H        -0.9783938105       -2.4178773599       -6.1625161131
 H        -1.3775927768       -3.5541926093       -7.4087972904
 H         0.8492336488       -4.0438383556       -7.3111707140
 H        -0.3708832295       -5.1589097072       -7.9226408353
 H         1.3787962858       -5.8274340291       -7.6521920612
 H        -1.3123547632       -7.0415139416       -5.1157569598
 H        -0.3981547619       -7.4879210185       -6.6335977893
 H         0.2483487228       -7.5679379389       -4.9379268815
 Na       -2.9848569279        0.2741092275        0.2251566545
