155

 C         0.3437185169       -2.0110647618       -0.1737982879
 C        -1.0897035242       -1.8987625766       -0.5044546293
 C        -2.1247672031       -2.9564915182        0.1290932363
 C        -2.4824280146       -2.2947979122        1.4758608442
 C        -1.8388333343       -2.7455706697        2.7175964538
 C        -3.2949841585       -2.9951943734       -0.8466181445
 C        -1.5254628184       -4.3499475472        0.3610268944
 O        -1.5483567677       -0.9146805448       -1.1410792381
 O        -3.3799885229       -1.4154591916        1.5225477890
 C        -2.1935526993       -1.8807805881        3.9645712500
 C        -1.6768926327       -0.4519009298        3.9045426117
 C        -2.4481622201        0.5379798390        5.0139454338
 C        -3.4204560509        1.4751040655        4.3095986155
 C        -2.9050764843        2.4547534383        3.2670928712
 O        -0.9638874470       -0.0315706512        2.9951004086
 O        -4.6167344363        1.6078684902        4.6171211392
 C        -3.3083169120       -0.2893710203        6.0849857250
 C        -1.2184106106        1.3590710900        5.6068888943
 C        -3.9679513381        3.4613280684        2.8623589237
 C        -5.1569176945        2.6651086388        2.1538602515
 C        -6.5301140417        3.2874869425        1.9603253255
 C        -6.3591842689        3.8517300295        0.4369191745
 C        -6.7765960786        2.7452940014       -0.5445459809
 C        -7.6139584479        2.2562937990        2.2321362712
 C        -6.7841372931        4.5402647178        2.9141350826
 O        -4.9149135018        1.5846515610        1.5908067677
 O        -5.8659916996        4.8949681011        0.1428399612
 C        -5.9676622438        2.7386193673       -1.8372762724
 C        -4.4640294471        2.3094461913       -1.6341865937
 C        -3.3037669866        3.3654622762       -1.9610287241
 C        -2.3998241851        3.4944809813       -0.6643359824
 C        -1.8498402323        4.8559427215       -0.4399131982
 O        -4.1903669600        1.2020420245       -1.3803160656
 O        -2.0251183888        2.5589409595       -0.0053448994
 C        -2.2481026829        2.7678526122       -2.9417036397
 C        -3.8402055517        4.6244992587       -2.6045006785
 C        -1.0750748255        5.1723226627        0.8239693285
 C         0.4177662853        4.7699494786        0.8222093661
 C         1.2230355697        4.8754735250        2.2059991096
 C         1.1433017845        3.3659874141        2.8840993036
 C         1.4157076148        2.1607630409        1.9154412364
 C         2.6448882623        5.2102380852        1.7697877876
 C         0.7027887479        6.0599732969        3.1174566670
 O         0.9597960731        4.3079366884       -0.1427010821
 O         0.9072819041        3.0841501853        3.9953331797
 C         2.6147852010        1.4151137314        2.4016417646
 C         3.0182323179        0.1997963362        1.5522921460
 C         4.2319803940       -0.6315917067        1.9030407396
 C         4.3352780392       -1.6773285666        0.7330024948
 C         5.4415652170       -1.4742395280       -0.2968209902
 O         2.5216979230        0.0732674904        0.4261552057
 O         3.5450893084       -2.5716016611        0.7077854278
 C         5.4981533113        0.2151598220        2.1064198447
 C         4.1024067547       -1.4889089037        3.2110548943
 C         5.1725493331       -2.3155643283       -1.5549682207
 C         5.4378617054       -1.4542554512       -2.8254998842
 C         5.5062790258       -2.2171969501       -4.2356412348
 C         4.6005263413       -3.4192400238       -4.2773115509
 C         3.0792840504       -3.4590594751       -4.6995396485
 C         5.0112721273       -1.2053217834       -5.2777352787
 C         6.9044692210       -2.6692349198       -4.4478578543
 O         5.5426723597       -0.2765567153       -2.7469555853
 O         5.1081663114       -4.5048143351       -3.9884069504
 C         2.6491191206       -4.8771445341       -4.9371992414
 C         1.1451285717       -4.9637052624       -4.5740755618
 C         0.1062696142       -5.4378906191       -5.7011858694
 C        -1.1846937022       -4.4527302314       -5.4203111928
 C        -1.2417288674       -3.0921272693       -6.2518310441
 O         0.7691277049       -4.6714236873       -3.4848365988
 O        -2.0874650825       -4.8048277313       -4.6680975120
 C         0.7593782256       -5.2357035033       -7.1682871441
 C        -0.2382363796       -6.9396474060       -5.5551303453
 H         1.0644300242       -2.2943404070       -0.8629029976
 H         0.6986290795       -0.9211232190        0.0124209028
 H         0.4269643625       -2.5802014806        0.7570547842
 H        -2.0169601826       -3.8125064845        2.8457491251
 H        -0.7443702192       -2.6264399945        2.4241818793
 H        -3.5884409170       -1.9461641423       -1.1409882033
 H        -4.1293046255       -3.5638867441       -0.4073165652
 H        -3.1240216970       -3.5661679610       -1.7128158499
 H        -0.6208353664       -4.2674466687        0.8537760505
 H        -2.1277271154       -5.0633912517        0.9845164307
 H        -1.2657080643       -4.8403923752       -0.6052152357
 H        -3.2977670335       -2.0673278399        4.1197979064
 H        -1.7199647048       -2.3658138462        4.8489279747
 H        -2.1065635551        3.0265564172        3.6994922943
 H        -2.5894845635        1.9465454369        2.3444204467
 H        -3.4736408616        0.4161418083        6.8272986965
 H        -2.8652013507       -1.2157114063        6.3406585348
 H        -4.2509870347       -0.6127941414        5.5665373597
 H        -1.6328801459        2.0910155805        6.2302004678
 H        -0.5731104940        0.7724562234        6.2163674758
 H        -0.7367828122        1.8456606783        4.8331688025
 H        -3.5513855021        4.1654501393        2.1043683313
 H        -4.4155405403        4.0555978891        3.6575583314
 H        -6.8306914443        1.7516939649       -0.0567063121
 H        -7.8218058892        2.8716988863       -0.7829829381
 H        -7.4030731317        1.2735821376        1.9022882170
 H        -8.6020093788        2.4812648041        1.9108688591
 H        -7.5504090405        2.1878047718        3.3938934999
 H        -6.3118297295        5.5237446461        2.6636497352
 H        -7.8344664934        4.7606364351        2.7400944948
 H        -6.7167995933        4.4314734144        4.0237512021
 H        -6.3692876464        1.9593051414       -2.4408804680
 H        -6.1253312136        3.7223606564       -2.3119615730
 H        -1.3555841668        5.2716728301       -1.3526462802
 H        -2.6968510629        5.6384534061       -0.3420657388
 H        -1.7074617296        1.8844193557       -2.5902283197
 H        -1.5382489109        3.4825643411       -3.2846064384
 H        -2.7992655431        2.4225506236       -3.8571870253
 H        -3.1296847608        5.2473077315       -3.2238188992
 H        -4.5671709702        4.3611599246       -3.3307552536
 H        -4.3482688676        5.3085871815       -1.9597305961
 H        -1.5279293615        4.6664437514        1.6769644723
 H        -1.1677890671        6.2504162342        1.0254736588
 H         0.5718914648        1.5433699561        2.1871688455
 H         1.4743834006        2.4769472916        0.8579042176
 H         3.1326412368        4.3476313030        1.3004278069
 H         3.1854882830        5.6205369349        2.5954373336
 H         2.4707228591        5.9787171092        1.0317828808
 H        -0.3143052471        5.9226071006        3.4525965159
 H         1.3883209208        6.3523781153        3.9046257296
 H         0.5474712253        6.9143118024        2.3669459112
 H         3.4501728307        2.1028556816        2.7060944541
 H         2.4193133904        0.9744366964        3.4680060119
 H         5.4274949331       -0.4733478739       -0.7095486632
 H         6.3938193117       -1.7176136354        0.2701866935
 H         5.4745477197        0.9683894687        2.9315449402
 H         5.6274989086        0.8889286934        1.1985771446
 H         6.3482950165       -0.4828332103        2.0569195486
 H         3.4245240884       -2.3119880109        3.0289845740
 H         5.0733415946       -1.9744042005        3.3941333515
 H         3.7481079104       -0.9396299701        4.1115740978
 H         4.2132613593       -2.8511419659       -1.7600455915
 H         5.8386178495       -3.1286542951       -1.5371674113
 H         2.4770015972       -2.8749310689       -4.0031022987
 H         2.9435291072       -3.0805572977       -5.6637693481
 H         4.7796171670       -1.7058660656       -6.2107969254
 H         5.7720020776       -0.4520374461       -5.5321359600
 H         4.0850986041       -0.8959143498       -4.8941935521
 H         7.1239163769       -3.5985443479       -3.9621498578
 H         7.0829193250       -2.8349363354       -5.5555443448
 H         7.6432269920       -2.0193265366       -4.0147381735
 H         2.8610863575       -5.2551142048       -5.8937115790
 H         3.2065710623       -5.5480463122       -4.2495998082
 H        -1.9179445204       -2.3402018191       -5.7802049357
 H        -0.1891977013       -2.7709312850       -6.2792613179
 H        -1.4188706139       -3.3571443989       -7.2474745794
 H         1.2747200930       -4.2831994223       -7.1884322306
 H        -0.0464233229       -5.3263627143       -7.8808267089
 H         1.4087666674       -6.0456756261       -7.1932479811
 H        -0.7622682070       -7.0647840265       -4.5955596198
 H        -0.7609911320       -7.3554686366       -6.3536202208
 H         0.5810751446       -7.6271934626       -5.4567746865
 Na       -3.1070315720        0.5951693084        0.3677975847
