155

 C         0.9419219893       -1.7534064973        0.0026128900
 C        -0.5427222572       -1.4259387453        0.1152881295
 C        -1.5917261783       -2.5970153429       -0.2426988877
 C        -2.7980912548       -2.3846170977        0.6320329034
 C        -3.1131141233       -3.1457356328        2.0359709792
 C        -1.9960758231       -2.4943202477       -1.7644960361
 C        -0.8628511811       -3.8585331533        0.1154981807
 O        -0.9274310568       -0.2457699512        0.2552963771
 O        -3.6525684786       -1.6233913850        0.1728430827
 C        -4.1521420947       -2.2763698250        2.8727448711
 C        -3.4162699301       -0.9764352489        3.4778307814
 C        -3.6490560936       -0.5314773067        4.9449615528
 C        -4.7439689099        0.5727991881        4.7506662578
 C        -4.2169858996        1.8824078842        4.2335926973
 O        -2.7528552498       -0.2654711635        2.7601602046
 O        -5.9291850084        0.3485703227        5.0459099299
 C        -4.1696808824       -1.6455462113        5.9276030145
 C        -2.2804779523        0.0898729249        5.4569042617
 C        -5.2962278235        2.8026190400        3.6667278117
 C        -5.9325578979        2.3121060074        2.3414791368
 C        -6.8327356625        3.2108777687        1.5144858233
 C        -6.0473246096        3.5731566786        0.1866829912
 C        -6.3656473028        2.8215560282       -1.1276460087
 C        -8.0901598426        2.3573418027        1.1197775671
 C        -7.1544186002        4.5705809695        2.0769721268
 O        -5.7387782118        1.2012126544        2.0126092788
 O        -5.2713745869        4.5239947794        0.1653659314
 C        -5.2237134670        3.0996394832       -2.1692767621
 C        -3.9987152785        2.2280500270       -1.8426727151
 C        -2.5734145428        2.9140523817       -1.7410720602
 C        -2.6397942427        3.5781275298       -0.3722755734
 C        -2.3463544973        5.0844991247       -0.2234246172
 O        -4.2667478233        1.1111052840       -1.5209917487
 O        -3.1567846523        2.9202431744        0.5420849440
 C        -1.3453854439        1.9877216394       -1.8044613624
 C        -2.4910864833        3.9361443132       -2.8956908561
 C        -1.5753406627        5.3333258644        1.0746763431
 C        -0.0910405032        5.1171622044        0.8125095904
 C         0.8448450049        4.6916680115        1.9822191446
 C         0.7127764651        3.1125501694        2.2001224975
 C         1.3443687099        2.0644625590        1.2558504167
 C         2.3381566665        4.9980680921        1.4938374502
 C         0.3253287166        5.4040350487        3.2970602653
 O         0.3802783737        5.3569528530       -0.2530086741
 O         0.1687297703        2.6564015716        3.1942244816
 C         2.5965628059        1.4962570152        1.9367234366
 C         3.4946666081        0.8005710777        0.9524779361
 C         4.4914098175       -0.4177719846        1.5401269282
 C         5.2119869595       -1.1208016088        0.3250549990
 C         6.1672114024       -0.2793893026       -0.5188233168
 O         3.4058529711        1.0168777466       -0.2119422940
 O         4.8867090315       -2.2821080207        0.0524750521
 C         5.5823040958        0.1902048079        2.4255872897
 C         3.6078837643       -1.4128085300        2.3789499894
 C         6.9060023147       -1.1062959329       -1.5678413252
 C         5.8973503861       -1.2299926465       -2.8007819281
 C         6.2174836564       -2.3412209137       -3.9457157202
 C         5.2857531256       -3.6023704988       -3.5978154540
 C         3.7558099490       -3.2395476941       -3.6544972093
 C         5.8948118220       -1.7373936501       -5.3828886265
 C         7.7106739998       -2.8451464922       -4.0356479731
 O         4.8979827019       -0.5405908216       -2.8699055110
 O         5.7707767033       -4.6390797591       -3.3511522544
 C         2.9874896761       -4.6182649231       -3.6133579250
 C         1.4670982402       -4.2827908300       -3.7869511829
 C         0.5894632821       -5.0217275801       -4.8515565247
 C        -0.4286276728       -3.9836449271       -5.3919088886
 C        -0.0117727357       -2.6969552225       -6.0202043386
 O         0.9911360297       -3.3280562584       -3.1670201757
 O        -1.6170811039       -4.1918140128       -5.2551793491
 C         1.4394704547       -5.6105212929       -5.9648484918
 C        -0.1890363966       -6.1784845192       -4.1109787752
 H         1.3042873672       -2.0943829042       -0.9536371676
 H         1.6379546040       -1.0215270309        0.4479336261
 H         1.2074724184       -2.6337593393        0.6634260229
 H        -3.5426792145       -4.0909666761        1.9567960637
 H        -2.1142563689       -3.1429546799        2.5883950634
 H        -2.4052301800       -1.4361251292       -1.7950374044
 H        -2.6774972128       -3.2675374280       -2.0049645641
 H        -1.1992423702       -2.6858230188       -2.4857120536
 H        -0.4377349729       -3.8533277490        1.1635463654
 H        -1.5309409132       -4.6635783497        0.1147649419
 H        -0.0474456181       -3.9840498575       -0.5422825578
 H        -4.9629591497       -2.0714687126        2.1714215258
 H        -4.5152178971       -2.8842057887        3.6203502529
 H        -3.6344887843        2.4713489442        4.8874804333
 H        -3.4510204619        1.6565411809        3.4609611446
 H        -4.4574333095       -1.0284534159        6.7837135467
 H        -3.5191481734       -2.4702901108        5.9996864083
 H        -5.0597849081       -2.0180964525        5.5500122816
 H        -2.3169964862        0.5688823916        6.4059295630
 H        -1.5777873971       -0.7169805793        5.4507550574
 H        -1.9477876147        0.7141261270        4.7285660083
 H        -4.9870799599        3.7828406008        3.5105962663
 H        -6.1741466481        2.8483034486        4.2771371437
 H        -6.5397749359        1.7031621394       -0.9190754930
 H        -7.2155727926        3.3091283263       -1.5760976325
 H        -7.7747982844        1.4089124575        1.0483877765
 H        -8.3072912227        2.6348806906        0.1634746712
 H        -8.9516500199        2.4729552530        1.8095206981
 H        -6.5421000982        4.9006889519        2.9086637261
 H        -7.2071280531        5.4161305663        1.3574857067
 H        -8.0809649202        4.5753409501        2.6196236329
 H        -5.5635700174        2.9040383501       -3.1721617323
 H        -5.0147853309        4.1702756166       -2.1313564384
 H        -1.7164301325        5.2596169128       -1.0341309275
 H        -3.2811314400        5.5874372548       -0.2838004973
 H        -1.4457266851        1.3996097726       -0.8881303625
 H        -0.3817660505        2.5726094476       -1.6428856804
 H        -1.3149291004        1.4141225553       -2.7057895332
 H        -1.6064191830        4.4919476090       -2.8214046756
 H        -2.2914846879        3.3879019876       -3.8148044567
 H        -3.3838142947        4.5542698896       -2.9269769621
 H        -2.0376378470        4.7085675495        1.8996221735
 H        -1.7642606970        6.4263292934        1.2486634637
 H         0.6452540683        1.2472267358        1.2502879297
 H         1.5663498822        2.5403938417        0.3203554539
 H         2.3267838398        4.7329830564        0.4977823841
 H         3.0175069854        4.3083449744        1.9500900862
 H         2.6187673444        6.0553823320        1.6664145293
 H        -0.5841411110        4.9807218676        3.7243577202
 H         1.1484386710        5.4210353574        3.9992293097
 H         0.0269158288        6.4189751654        2.9944031558
 H         3.0770098928        2.2640325012        2.5043354756
 H         2.4171884208        0.8744336950        2.7932030291
 H         5.8169718381        0.5914078578       -0.9488083869
 H         6.8503468601        0.1617684479        0.1730543667
 H         5.1149128166        0.8182679094        3.2912557395
 H         6.2271269417        0.9128427429        1.8727590678
 H         6.2677433859       -0.6035667650        2.9233218149
 H         2.5380151868       -1.2302546414        2.1560835218
 H         3.8441762754       -2.3386471226        1.8819472871
 H         3.7628180161       -1.4905703574        3.4250436305
 H         7.0217853188       -2.1744996350       -1.2645012929
 H         7.7741974216       -0.5664543327       -1.7908094796
 H         3.5159158344       -2.8023068234       -2.7389966019
 H         3.6190352307       -2.4926617270       -4.5048633084
 H         5.6372910966       -2.4840899853       -6.1109437018
 H         6.8128342940       -1.3656152697       -5.7551588747
 H         5.0743515953       -1.0348534531       -5.4056680654
 H         8.0886587324       -3.3597123557       -3.1511013846
 H         7.7564960233       -3.3656359774       -4.9554212061
 H         8.4378265720       -2.0290476264       -3.9868550069
 H         3.3225528859       -5.2216096274       -4.5229327301
 H         3.1428321488       -5.1730762786       -2.7206850090
 H        -0.7657835284       -2.3356626997       -6.7028669851
 H         0.0112030401       -2.0804211900       -5.1102951279
 H         1.0810461742       -2.7765354957       -6.3467166123
 H         2.2741953567       -5.0110576345       -6.2378910578
 H         0.8635677192       -5.7987248720       -6.8327876647
 H         1.8186214029       -6.6127909973       -5.6785005103
 H        -0.7473178807       -5.9096512624       -3.2497990138
 H        -0.8601011318       -6.7369968430       -4.8018494730
 H         0.4882364023       -6.9014659838       -3.6369248814
 Na       -3.2013868178        0.5987784722        0.6877623935
