155

 C        -0.5248917445       -9.5069364834        0.9648491209
 C        -1.1547073272       -8.1271612793        1.0069133464
 C        -2.0675486047       -7.5442411562       -0.1642201792
 C        -2.6751102752       -6.2064285010        0.2945106485
 C        -3.9036369893       -6.2639263452        1.3027588770
 C        -1.1186970070       -7.2494123215       -1.3480989764
 C        -3.1738176726       -8.5431693817       -0.8464626540
 O        -0.7541619002       -7.3805047908        1.8641072647
 O        -2.0081330049       -5.2259181487        0.1419874991
 C        -4.1533827104       -4.9808340428        2.1429305782
 C        -5.2666853567       -4.0857296127        1.5947026514
 C        -5.3090336900       -2.5218444368        1.9015921576
 C        -4.1846846450       -2.1207073787        0.9376870317
 C        -4.3377496571       -2.1001136127       -0.6077119567
 O        -6.0186593889       -4.5515416689        0.7347455741
 O        -3.1212552557       -1.9177618374        1.4321620900
 C        -6.6494554566       -1.8634855079        1.4981821886
 C        -4.8642563015       -2.1641781222        3.3313835575
 C        -2.9988059084       -2.3507087122       -1.3569341376
 C        -2.0465158359       -1.0810303803       -1.3016990017
 C        -0.5218814532       -1.3485551725       -1.1919547243
 C         0.3062019441       -0.6057200864       -2.3244232728
 C         1.4831125732       -1.3640882737       -2.8864118585
 C        -0.1367586234       -0.7866453888        0.1397194345
 C        -0.2106220694       -2.8479225503       -1.1582480364
 O        -2.6183918995       -0.0041412492       -1.3835945337
 O         0.0859980742        0.5182508887       -2.6546957441
 C         2.2208919572       -0.4389202462       -3.8718987000
 C         1.4856351496       -0.4487191516       -5.2389000667
 C         1.7147265651        0.6026877126       -6.4159048154
 C         0.4079487528        1.3483559669       -6.6795723587
 C        -0.9292338933        0.5732334258       -7.0567339097
 O         0.5829236746       -1.2702705372       -5.3219855255
 O         0.3575358327        2.5651469462       -6.7781764134
 C         2.8117776923        1.6356818519       -6.1067826157
 C         2.1490648333       -0.1319191815       -7.6953975375
 C        -2.2228201286        1.3874987897       -6.9543536797
 C        -2.2335605298        2.0643848486       -5.6061016965
 C        -2.6215119759        3.6708704562       -5.4508713996
 C        -1.8474007237        4.1489675535       -4.1302597125
 C        -0.4055879741        4.6661734541       -4.3450335452
 C        -2.2552031854        4.4665818019       -6.6848388142
 C        -4.1210438697        3.7676968253       -5.1870884425
 O        -1.8809372117        1.4894027891       -4.6260291621
 O        -2.4012645297        3.9948750372       -3.0216548188
 C         0.1145930915        5.3234136490       -3.1029345541
 C         0.1615500996        4.4253851650       -1.8936241393
 C        -0.2254463925        5.0012552775       -0.4381405789
 C        -0.4728255142        3.7155473083        0.5404457920
 C        -0.2544751831        3.9327397079        2.0113422906
 O         0.4441404012        3.2923881187       -1.9586274659
 O        -1.2124725443        2.7862531319        0.2673180476
 C         0.8422275764        6.0603001424       -0.0318583628
 C        -1.6125225173        5.7055718072       -0.4143700436
 C         1.1748699137        4.0827919251        2.6968145647
 C         2.0429359008        3.0133617614        2.0307868170
 C         3.3464129052        2.6251146792        2.8118589400
 C         2.9831347676        1.9115981858        4.1777430336
 C         3.3981939970        0.4634761193        4.3936816654
 C         4.2094153080        1.6665193640        1.8127293237
 C         4.2662072077        3.8651900310        3.2077774065
 O         1.9073784542        2.5692270740        0.8900494235
 O         2.1719669537        2.4053761382        4.9569186788
 C         3.1912302062       -0.0818749632        5.8401393748
 C         4.3544173919       -0.0446818988        6.7460721031
 C         4.1783218978       -0.1650269549        8.2905209006
 C         3.6253419372        1.1848992627        8.8269497912
 C         3.4370677037        1.3424548488       10.3231072108
 O         5.4513757212       -0.1510080190        6.1826290699
 O         3.3014494816        2.0535616359        8.0453966834
 C         3.4154897651       -1.4253393960        8.7210592177
 C         5.6097053083       -0.2413550600        8.8332683782
 H        -0.3859691370       -9.9496909251        1.9241716341
 H        -1.2696028601      -10.1208741752        0.4603037728
 H         0.3682055457       -9.5752431097        0.3395261249
 H        -4.8743743607       -6.7242163890        0.9550161329
 H        -3.5840547251       -7.0544022272        2.0326057863
 H        -1.5118501585       -6.4862960856       -2.0018101567
 H        -1.0238222276       -8.0816139897       -2.0451037275
 H        -0.1265666656       -6.9119739754       -1.1346350944
 H        -4.1257920875       -8.4518538784       -0.2745356425
 H        -3.4548544950       -8.3970024955       -1.9155067327
 H        -2.9155696660       -9.6224287294       -0.8709110235
 H        -4.4122331271       -5.1797835983        3.1374348442
 H        -3.2699735748       -4.4398306782        2.3479952593
 H        -4.9831293019       -3.0022069078       -0.9112076798
 H        -4.7719173184       -1.1903313663       -1.0397586429
 H        -6.6661541693       -0.7454630616        1.4233921755
 H        -7.4926013022       -2.0771993601        2.2503458765
 H        -7.0787460269       -2.3173312519        0.6560744145
 H        -3.8085816154       -2.2478603700        3.5367383314
 H        -5.2256407657       -1.1787515457        3.6217063726
 H        -5.3187920012       -2.9038077891        3.9697282471
 H        -3.1100685593       -2.5396662298       -2.4413410343
 H        -2.6687986054       -3.2630861108       -0.7605179686
 H         2.1167601147       -1.6449764200       -2.0400919038
 H         1.1644096444       -2.3480497562       -3.2198941936
 H        -0.7609721967       -1.1857268017        0.9285293336
 H        -0.1705939767        0.2608498151        0.2254567633
 H         0.9017468219       -1.0814756502        0.2764063077
 H        -0.8423802618       -3.3082180059       -0.3856188431
 H        -0.4234771120       -3.3052766458       -2.1301267036
 H         0.8686586931       -2.9797633520       -0.8610343947
 H         2.2834660671        0.5171603042       -3.4372943121
 H         3.2833355561       -0.7444904407       -3.9002279094
 H        -0.9398018580        0.1649759284       -8.0398110579
 H        -1.0742398502       -0.3350465528       -6.3809813463
 H         2.6433497610        2.0833399771       -5.1729074268
 H         2.7885455671        2.4047711907       -6.8671784032
 H         3.8039513451        1.2263630249       -6.2189805869
 H         1.3573363386       -0.1425394540       -8.4693280785
 H         3.1787608004        0.2635405627       -8.0182600621
 H         2.3493496559       -1.1952983977       -7.3945706861
 H        -3.2658154387        0.8971817038       -7.0960066369
 H        -2.1215756905        2.1623446264       -7.7534040621
 H         0.0655451029        3.6716053767       -4.6229784678
 H        -0.3586336474        5.1978066160       -5.2832407778
 H        -1.3349277577        4.1535248131       -7.1625579995
 H        -1.7213435698        5.4603294330       -6.3887861853
 H        -3.1752141517        4.6611059677       -7.1827902952
 H        -4.3863115566        4.8138279070       -5.1920924518
 H        -4.5760109094        3.2205624636       -5.9540799395
 H        -4.5032648955        3.2686890386       -4.2797292702
 H         1.1015088361        5.7252779087       -3.4335094522
 H        -0.4287565716        6.2694661716       -2.9201356450
 H        -0.8882159937        4.7880661857        2.3859829060
 H        -0.6553366002        3.0967120747        2.5515449015
 H         1.7477375820        5.5213877074       -0.0072367743
 H         0.7359389344        6.5103751731        0.9582986942
 H         0.8402887611        6.9472870659       -0.7467417033
 H        -2.0314883699        5.9557338163        0.5689530184
 H        -1.5677265782        6.6565636519       -0.8834549550
 H        -2.4514282318        5.1841756307       -0.8672425584
 H         1.1358540831        3.8568360007        3.7738119756
 H         1.7788992371        4.9817897162        2.6751924522
 H         2.8502237347       -0.1419955519        3.6958447859
 H         4.4304938380        0.3829347826        4.1549838358
 H         3.8076294587        0.6932319896        1.7822364007
 H         5.1637723638        1.3839847881        2.1976504537
 H         4.3350012847        2.2018337582        0.8584230594
 H         4.8821225803        3.8196610585        4.0984547253
 H         5.0560533582        3.8677535628        2.4574177240
 H         3.7684352992        4.8807403799        3.0824775586
 H         2.3192152808        0.3144427217        6.2831439646
 H         3.0232260224       -1.1259070554        5.7477021443
 H         3.8994453092        2.2857982146       10.6699804158
 H         2.3992106173        1.3733216143       10.6115062202
 H         3.9168740604        0.5188897998       10.8165169339
 H         3.2375173136       -1.2889461564        9.8206243545
 H         3.9903871043       -2.3502572732        8.4696350674
 H         2.4514969942       -1.4613907426        8.2040959199
 H         5.5555338470       -0.6871187503        9.8529794003
 H         6.1856718521       -0.7714755895        8.1221141360
 H         6.1012206647        0.7330657749        9.0072407748
 Na       -1.6925869002        1.9726495400       -2.1151088721
