155

 C         0.8363995953       -1.8752855815       -0.1747576214
 C        -0.5323115787       -1.4142343870        0.0429844223
 C        -1.7441999606       -2.3977012642       -0.5232176993
 C        -2.9609211311       -2.0790514005        0.3081825392
 C        -3.2487187383       -2.8628918408        1.6991549801
 C        -1.9902283294       -2.0910551641       -2.0384234653
 C        -1.1908909490       -3.9648310338       -0.3836824453
 O        -0.6939724766       -0.4784484612        0.7260005541
 O        -3.8569627880       -1.4053732364       -0.1241022215
 C        -4.3735284139       -2.0609557585        2.4482118896
 C        -3.6369742718       -1.1758359008        3.4149667519
 C        -4.1882667945       -0.9326537182        4.8839428810
 C        -5.2293604651        0.2487909648        4.6335272590
 C        -4.6549974076        1.5274465639        4.1926963879
 O        -2.7293379200       -0.4252573595        3.0438357379
 O        -6.4048961662        0.0940054100        5.0158957991
 C        -4.9344350375       -2.1168595161        5.6231675204
 C        -3.0633868549       -0.5056622138        5.7741807913
 C        -5.7559607467        2.4117295907        3.5538941869
 C        -5.8432506557        2.2215878433        1.9579187446
 C        -7.1067335509        2.6992651040        1.2116604724
 C        -6.4466014797        3.2632836823       -0.0683520733
 C        -6.4976044159        2.5295918455       -1.4017861929
 C        -8.0859686478        1.5468301139        1.2107989026
 C        -7.8117625168        3.9710828600        1.8332544155
 O        -4.9838445054        1.5130918535        1.4140190888
 O        -5.7770861732        4.2827202768       -0.0672780979
 C        -5.3008947325        2.9748555606       -2.3112649722
 C        -3.9376799560        2.4442802995       -1.7070842124
 C        -2.6183206523        3.3209916055       -1.8690352986
 C        -2.3211220999        3.8695138768       -0.4783318064
 C        -2.2218271711        5.3784265793       -0.3697177734
 O        -3.9244911724        1.4423766376       -0.9784044365
 O        -2.3141732956        3.1773163103        0.5232422876
 C        -1.4712292772        2.4110499151       -2.3503710335
 C        -2.8722797212        4.4705944921       -2.9255592948
 C        -1.4619313878        5.7158554045        0.9084822121
 C        -0.1537084842        4.9945929138        0.9368717104
 C         0.6853789683        4.7625187799        2.2786488796
 C         0.8428181966        3.1614797416        2.4008568589
 C         1.6173614059        2.4582737362        1.3532175710
 C         2.0114105829        5.5366989664        1.9725404900
 C         0.1504347742        5.2350583188        3.7235103730
 O         0.2304886137        4.4296987161       -0.0487708498
 O         0.1502002187        2.5357457560        3.2074594710
 C         2.4256274774        1.2424549899        1.8678059849
 C         3.4128231890        0.7069853464        0.8479357401
 C         4.6324642058       -0.2933240545        1.4190069049
 C         5.4068245827       -0.9580786575        0.1777318786
 C         6.2415834586       -0.0254612020       -0.6728553486
 O         3.3246662047        0.9684024422       -0.2872439206
 O         5.2799965534       -2.1643535281        0.0838123183
 C         5.5892834990        0.5631741582        2.2515872536
 C         3.8800252093       -1.3046892528        2.3093723100
 C         7.0592290041       -0.8147359842       -1.6668927603
 C         6.1065914978       -1.2044160576       -2.8686063745
 C         6.4765843532       -2.4286946407       -3.7548727270
 C         5.5294708179       -3.5571198469       -3.3353536066
 C         3.9932813477       -3.1449700689       -3.0190403570
 C         6.2877113147       -1.9870173551       -5.2299442829
 C         7.9143270244       -3.0162867963       -3.4630055411
 O         5.0813319341       -0.6231997794       -3.0595003432
 O         5.8737846822       -4.6937502765       -3.2303915978
 C         3.2382520727       -4.3418598239       -3.5078952889
 C         1.7777022548       -4.1094099100       -3.6372815303
 C         0.7741806642       -4.9061776130       -4.6012363909
 C        -0.3048298260       -3.8650012775       -5.1363538685
 C         0.1310122485       -2.8741981073       -6.2714188772
 O         1.2646475268       -3.2708183650       -2.9519949817
 O        -1.4036225678       -3.7789715836       -4.5913669714
 C         1.5490149727       -5.6504182483       -5.7338814670
 C         0.0475767457       -5.8818739878       -3.5760554404
 H         1.0346343202       -2.6248147364       -1.0142489214
 H         1.4552624265       -1.0794330065       -0.5082512687
 H         1.3367135715       -2.2070536812        0.6728677097
 H        -3.6126414501       -3.8928226274        1.4476448400
 H        -2.3812894599       -2.9871934894        2.2230538986
 H        -2.1042308602       -1.0505239486       -2.1152599676
 H        -2.9698647388       -2.5412633955       -2.3859059698
 H        -1.0778538195       -2.4198923887       -2.6327953230
 H        -0.6656514615       -4.1980415534        0.5194937368
 H        -2.0603516239       -4.6682949618       -0.5150656804
 H        -0.5947064482       -4.1577226660       -1.2277234924
 H        -4.7595002645       -1.4269185276        1.6685335863
 H        -5.1263509404       -2.6857846009        2.9513544653
 H        -4.1469424254        2.1015885558        5.0361676714
 H        -3.8047058032        1.3379887586        3.5410428435
 H        -5.1488267172       -1.9275213882        6.6658627329
 H        -4.2014653240       -2.9834511153        5.6865729751
 H        -5.7821637199       -2.5422482450        5.0634792774
 H        -3.4303695929       -0.1917190215        6.7588135035
 H        -2.4537970047       -1.3736370618        5.9273212585
 H        -2.4662444685        0.3244728838        5.4447324033
 H        -5.5504875966        3.5027090554        3.6146370526
 H        -6.7198596875        2.1832038796        3.9335428694
 H        -6.2831955021        1.4671756997       -1.1730631176
 H        -7.5093297919        2.6318281983       -1.7865966484
 H        -7.5193916055        0.6296784951        1.3031659167
 H        -8.9389375839        1.6149446905        0.4905933101
 H        -8.6004637684        1.6524535274        2.1710430026
 H        -7.2149236621        4.7653843766        2.1090269363
 H        -8.5024818869        4.3778145941        1.0439894730
 H        -8.5081245968        3.7689123212        2.6683547280
 H        -5.4170568830        2.5879964381       -3.3509449874
 H        -5.1869726111        4.0677067777       -2.2959141247
 H        -1.7819576601        5.6365022649       -1.3120528566
 H        -3.2523851981        5.7267893556       -0.3193739843
 H        -1.4859414307        1.5234739709       -1.7429236873
 H        -0.6003101339        3.0149324156       -2.3185416628
 H        -1.5695005595        2.0949480324       -3.4170793436
 H        -1.9581595808        5.0206968254       -2.9365348411
 H        -3.0714232563        3.9903656416       -3.8296261764
 H        -3.6985222655        5.1428910871       -2.6865399862
 H        -2.1261355967        5.4770413053        1.7215048929
 H        -1.1744380400        6.7723202713        0.9209990717
 H         0.8528248407        2.2560478235        0.6322746509
 H         2.3616676118        3.0766488951        0.8962600504
 H         2.2278301387        5.4527462571        0.8807009174
 H         2.8701821023        5.1385154152        2.5336963294
 H         1.9141713658        6.5512067480        2.1254113538
 H        -0.6810969573        4.6418506563        4.0232307934
 H         0.8980097224        5.1444493179        4.5215367706
 H        -0.0862549448        6.2129456802        3.7935440631
 H         3.0421744599        1.4206716163        2.7630012608
 H         1.7966008401        0.3790167735        2.1960526024
 H         5.7026955187        0.8491886169       -0.9898883479
 H         6.9112213053        0.4675535750       -0.0125131485
 H         5.2697764490        0.9444661405        3.2889065760
 H         6.0801258146        1.3121921491        1.6166001384
 H         6.4133102544       -0.2126860342        2.5722049162
 H         3.7820672346       -0.9257795580        3.2775464892
 H         2.9243312881       -1.6190069420        1.8114831413
 H         4.4727058553       -2.2549357768        2.4056738582
 H         7.4262149231       -1.6967210098       -1.1466227179
 H         7.9266071432       -0.2256269490       -2.0823535070
 H         4.0114121301       -2.9907369806       -1.9261767854
 H         3.6534235136       -2.2297736331       -3.6124667689
 H         6.1514038424       -2.8481551974       -5.8598505992
 H         7.1205322336       -1.3426997550       -5.5505083511
 H         5.4830232896       -1.3057140625       -5.3527779654
 H         7.8835608198       -3.6010306622       -2.5400849857
 H         8.0554204897       -3.7588639006       -4.2745255761
 H         8.7507871318       -2.3168061980       -3.6212745668
 H         3.5691710175       -4.6630630408       -4.5029581387
 H         3.4871217961       -5.2790154181       -2.8605169339
 H         0.9198206558       -3.4156418177       -6.8442032112
 H        -0.6882091628       -2.7882748214       -7.0598764528
 H         0.3704632734       -1.9306861973       -5.8047892681
 H         2.2987000935       -5.1045326791       -6.2472155484
 H         0.8878746857       -5.9366273556       -6.5479527897
 H         2.0139484691       -6.5181999817       -5.4437130811
 H        -0.0168313783       -6.9052953746       -4.0178894932
 H         0.5203906017       -5.8728164502       -2.6238548847
 H        -0.9131086709       -5.6342964404       -3.1716959434
 Na       -2.6248360084        0.7521928322        0.8589963678
