155

 C         0.7663879748       -1.4245040937        0.3097186119
 C        -0.6830668461       -1.0876003889        0.1497236930
 C        -1.7544097209       -1.9789597232       -0.7507631645
 C        -3.1249921999       -2.0346938303        0.1330434750
 C        -2.9203487056       -2.9564407596        1.3310365480
 C        -1.9150034894       -1.1924450496       -2.0842159965
 C        -1.2878922201       -3.4629116679       -1.1153221065
 O        -1.1598933742       -0.0878215021        0.5895396349
 O        -4.0405508108       -1.3960001651       -0.2185490030
 C        -3.9015943840       -2.8108800457        2.5094277651
 C        -3.9994974258       -1.4851260417        3.2670252160
 C        -4.9399947938       -1.2497393209        4.5103491216
 C        -5.9370014883       -0.0299007928        4.1235086874
 C        -5.4599309534        1.3923010482        4.3852916013
 O        -3.5825703300       -0.5129922901        2.6642324454
 O        -7.0390738223       -0.1915141816        3.5948273669
 C        -5.7641238571       -2.4759005036        4.8938682023
 C        -3.9788323945       -0.9165764384        5.6097459524
 C        -6.4441225136        2.2864053405        3.5450622340
 C        -6.1991645820        2.0425549889        2.0323467002
 C        -7.3692929688        2.0692809089        1.0616359688
 C        -6.8433860738        2.8897998556       -0.1756653610
 C        -6.3183423202        1.9622028885       -1.3517008162
 C        -7.6501223482        0.6058705462        0.6054313479
 C        -8.6163984902        2.8033304157        1.6592105470
 O        -5.0245970706        2.0368659431        1.5902186586
 O        -6.8480484960        4.0884593354       -0.1795206513
 C        -5.4233736977        2.7145032646       -2.3784991067
 C        -3.9221603239        2.6175572431       -2.1076898990
 C        -3.0144074968        3.8102665008       -2.0709779159
 C        -2.4830966961        3.9355142404       -0.5106546198
 C        -1.6732524469        5.3407851673       -0.1879228340
 O        -3.5361470934        1.4753173302       -1.8226986618
 O        -2.6342895389        3.0557005141        0.2759146125
 C        -1.7010733680        3.4363463212       -2.7778718903
 C        -3.4395270760        5.0123673412       -2.9769029782
 C        -1.2249264935        5.4528581704        1.2625272564
 C         0.2297752877        5.0078779817        1.4123420296
 C         0.8913244150        4.9970629568        2.9259885718
 C         1.3561839009        3.5031634103        3.0801480259
 C         2.4343773971        2.9295314131        2.0833419263
 C         2.0254682552        5.9780141421        3.0357899755
 C        -0.0739690537        5.3387072884        4.1796403036
 O         0.9506941351        4.8376469287        0.4595148798
 O         0.7832987066        2.7400665280        3.7783101405
 C         2.6798198326        1.4333766420        2.4010081036
 C         3.3770026621        0.7847652155        1.1928130847
 C         4.7317145211        0.0917339824        1.4522616955
 C         5.3982133539       -0.6883986915        0.1836899130
 C         6.3080159883        0.0550613863       -0.7865978164
 O         2.8674678349        0.8011385867        0.1240750740
 O         5.1056304456       -1.8575035106       -0.0127925840
 C         5.8282518692        1.0844069388        2.0316194716
 C         4.4216710092       -0.9823584564        2.5287387690
 C         7.2862328083       -0.9019892543       -1.4934489377
 C         6.8140792674       -1.2120996309       -2.9521295276
 C         7.1484848042       -2.6022213415       -3.6375971129
 C         5.8449843762       -3.4904592901       -3.1807205938
 C         4.4220106600       -2.9553512416       -3.4387621568
 C         7.1161336772       -2.4440359411       -5.1717426680
 C         8.4431256045       -3.1701698669       -3.1603177948
 O         5.9783544872       -0.5034893973       -3.4401949365
 O         6.0407694231       -4.4838314989       -2.6003937141
 C         3.5959134640       -4.1619788622       -3.8331631947
 C         2.0490247851       -4.1581469287       -3.5610243947
 C         1.1168630905       -5.2070740508       -4.4160019512
 C        -0.0650303941       -4.1863907227       -4.9105503250
 C         0.1578025988       -3.2723984497       -6.1003610961
 O         1.5000916859       -3.5800520399       -2.6879446015
 O        -1.0483725725       -4.0421635495       -4.2365003479
 C         1.9747793708       -5.9317050197       -5.5062956390
 C         0.4056700078       -6.2163646995       -3.4702959855
 H         1.2320834285       -0.9604509980        1.2614500370
 H         0.9412962576       -2.4339844612        0.4862844154
 H         1.3293140056       -1.1166289627       -0.5369578628
 H        -2.9415407948       -3.9721319376        0.9092105169
 H        -1.8808471395       -2.8250872901        1.6922338025
 H        -1.3956639807       -0.3012724764       -2.1858245517
 H        -3.0426486501       -1.0289038041       -2.1289901177
 H        -1.6772738097       -1.8777540010       -2.9297352546
 H        -0.7544277068       -3.8174728307       -0.3024849034
 H        -2.1916378074       -4.1253234989       -1.1550016118
 H        -0.5712386305       -3.6095170652       -1.9304085271
 H        -4.9010289356       -3.1788284043        2.3813497850
 H        -3.4902249805       -3.4478635793        3.3096100117
 H        -5.4880101688        1.6401405912        5.4492923215
 H        -4.4098623310        1.5016560394        4.0141792826
 H        -6.1569630441       -2.3313918455        5.8660271875
 H        -5.2973618423       -3.4219729233        4.6842452419
 H        -6.7581059959       -2.5286690838        4.3801208568
 H        -4.4201530790       -0.5833853920        6.5314089773
 H        -3.3457908999       -1.7038578792        5.8834160853
 H        -3.2661664682       -0.1473567547        5.3613461762
 H        -6.2528152177        3.3703511936        3.6338526398
 H        -7.5245883344        2.0445178092        3.8361674767
 H        -5.8609430675        1.1460763522       -0.9857382149
 H        -7.2797971604        1.5323297748       -1.7761123955
 H        -6.7338030118        0.1033662308        0.2764313959
 H        -8.3415437982        0.5620147703       -0.3058518215
 H        -8.0383059482       -0.0143185787        1.4851513950
 H        -8.2246382973        3.7322886794        1.9550407466
 H        -9.3419150104        2.9295962291        0.8522318480
 H        -9.0059087236        2.3302481620        2.5629215273
 H        -5.6070485503        2.3658995869       -3.4286709348
 H        -5.8057745215        3.7598997830       -2.3208630441
 H        -0.7697452336        5.3725428823       -0.8339981338
 H        -2.3208822908        6.1666280998       -0.5027651979
 H        -1.1007310461        2.7762108656       -2.1094235929
 H        -1.1290944035        4.3528988730       -2.8728224737
 H        -1.9254901848        2.9680592510       -3.7844608442
 H        -2.8373898603        5.9237409606       -2.9829397574
 H        -3.4095059699        4.7462562195       -4.0112480730
 H        -4.3954339937        5.3179573895       -2.6416024304
 H        -1.7786173675        5.1019954047        2.1082465208
 H        -1.0180432727        6.4593762685        1.5269647782
 H         2.1646313169        3.0365410412        1.0620153485
 H         3.3088505341        3.5186019314        2.2555378958
 H         2.5892789933        6.1803985569        2.0777439470
 H         2.8024778578        5.6615996107        3.6832741501
 H         1.7179029451        6.9645858307        3.3019503661
 H        -0.4786194745        4.4348061618        4.6300999841
 H         0.4453709557        5.7688061735        5.0318830019
 H        -0.8956618172        5.8691107362        3.8736275152
 H         3.3940900263        1.3650142517        3.3145106884
 H         1.7196086663        0.9398552016        2.6658983925
 H         5.5625914851        0.3779714810       -1.5625091791
 H         6.9569576192        0.8004970555       -0.3577963877
 H         5.7470635189        1.2825370051        3.1529670633
 H         5.8960666269        2.0243379845        1.4233986652
 H         6.8559691866        0.5438374824        2.0691112512
 H         3.9701345405       -1.8245940612        2.1181746978
 H         5.3252912296       -1.3096763339        3.0327376638
 H         3.7597505615       -0.5751971268        3.3117345423
 H         7.5690025770       -1.8218216583       -1.0295020291
 H         8.3163283061       -0.4348242157       -1.5763925976
 H         4.0328677663       -2.4803936983       -2.5702757953
 H         4.3525189567       -2.1919243458       -4.1695642360
 H         6.8515852525       -3.3184683600       -5.7240461581
 H         8.0845769393       -2.2490700844       -5.5454712205
 H         6.3691520841       -1.7172294623       -5.4425278293
 H         8.3761985672       -3.2058215753       -2.1029391658
 H         8.7693328028       -4.0809226798       -3.7144177702
 H         9.2151720539       -2.4171039014       -3.3347260078
 H         3.7642407860       -4.4184558713       -4.9480086064
 H         3.9098890741       -5.0863857182       -3.2500510272
 H        -0.8926032830       -3.1045466504       -6.4790645130
 H         0.6112949225       -2.3502401833       -5.6140111924
 H         0.8788829184       -3.5709922071       -6.8210186217
 H         2.4269476335       -5.1795989366       -6.1618854528
 H         1.3785938818       -6.6242608506       -6.1185026702
 H         2.7575780949       -6.5086122294       -5.1037089156
 H        -0.6616867727       -6.2118145822       -3.7667233555
 H         0.5952477342       -7.2444995421       -3.6818492500
 H         0.7577072931       -5.9262089991       -2.4655755720
 Na       -3.3522187087        0.7547818444        0.4347146794
