155

 C        -0.9235186188       -9.7340174998        0.8486120187
 C        -1.2615715218       -8.2034068286        0.8198308796
 C        -2.0396080706       -7.5640138728       -0.3263979664
 C        -2.5294751163       -6.1079910255        0.4613151109
 C        -3.6988797227       -6.2115929424        1.4023315290
 C        -1.1291243668       -7.1677711659       -1.5108047061
 C        -3.2805770983       -8.3088010790       -0.6677688859
 O        -0.8335376535       -7.4957113374        1.7072366182
 O        -2.1757912774       -5.0361657555        0.0017334899
 C        -3.9058586576       -4.9064079046        2.1210516216
 C        -5.1277400898       -4.1499456035        1.6512454092
 C        -5.2501776635       -2.5728546040        1.9052595293
 C        -4.1572600528       -1.9608315765        0.9057245404
 C        -4.6099461537       -1.9419648294       -0.5567484921
 O        -5.9776429930       -4.7478354060        1.0572574794
 O        -3.0263708705       -1.7119005300        1.3164489962
 C        -6.6804438517       -2.2283365611        1.5432540713
 C        -4.9870645819       -2.2139425401        3.4053055927
 C        -3.4155388164       -2.1171222083       -1.5510657323
 C        -2.2545832636       -1.1287459150       -1.4941414102
 C        -0.6930987835       -1.5860147341       -1.3966696594
 C         0.2270377516       -0.7733573771       -2.2931185593
 C         1.5555585560       -1.3440463000       -2.8696171537
 C        -0.2166096168       -1.1324615824        0.1172223986
 C        -0.5019466945       -3.0885267272       -1.5707026042
 O        -2.4807188298        0.0824505639       -1.4396008539
 O        -0.1043973010        0.3298847624       -2.7254454730
 C         2.1114833374       -0.4529970077       -4.0038120930
 C         1.2945534003       -0.5134580968       -5.2425865897
 C         1.5750620009        0.4288551953       -6.5296345816
 C         0.1881581807        1.2719116811       -6.7579703086
 C        -1.0391619686        0.4266539928       -6.9420163969
 O         0.4842057028       -1.3747466790       -5.4093233142
 O         0.2102681720        2.4818131633       -6.5869398889
 C         2.7626743998        1.4055969537       -6.1938141624
 C         1.8480335036       -0.5685852121       -7.7263795036
 C        -2.2160459834        1.4014527059       -6.9451339791
 C        -2.2981266781        2.0988980667       -5.5306204525
 C        -2.4962035715        3.6750206563       -5.4868042609
 C        -1.8731971598        4.1538802198       -4.2195189525
 C        -0.3243992400        4.6977499791       -4.1416732543
 C        -2.0679421228        4.4718609795       -6.7609369140
 C        -4.0219303178        3.6717606652       -5.3142152306
 O        -2.1611272111        1.4024415018       -4.5022835094
 O        -2.4365439747        3.9748585336       -3.1549057425
 C        -0.1700238445        5.4732334763       -2.8259613589
 C         0.0424947065        4.5515897724       -1.6507397468
 C        -0.1929197107        5.0856723051       -0.2322566380
 C        -0.3867793901        3.8289211171        0.7266116679
 C        -0.2437130997        4.0385656722        2.2486375301
 O         0.5798158728        3.4362846880       -1.8980784549
 O        -0.7663716680        2.7488701939        0.2940722535
 C         1.0902441084        5.8568728034        0.1260241492
 C        -1.4903068343        5.9840089086       -0.1137064876
 C         1.1437725204        4.2184650105        2.7611007728
 C         2.1010256704        3.1464791032        1.9467162071
 C         3.4380454950        2.5576205094        2.6968974464
 C         3.0168337498        1.9507293955        4.1179979018
 C         3.4136064573        0.4882976271        4.4271810181
 C         4.1792597247        1.5871652835        1.7581200615
 C         4.3128402280        3.8032245134        3.1612146689
 O         1.9166743665        2.9948682908        0.7834027159
 O         2.4169675957        2.6054605534        4.9136687117
 C         3.1580427406        0.0360857977        5.8843599550
 C         4.4961895844       -0.1131052652        6.5894793269
 C         4.4230000339       -0.1199078595        8.2275313963
 C         3.8978458425        1.2145039615        8.8472817367
 C         3.7665461612        1.3170457832       10.3929591924
 O         5.5537714168       -0.0072520167        6.0402722002
 O         3.3362545643        2.1001971216        8.2247621382
 C         3.4611917245       -1.2453474634        8.7331100703
 C         5.8577749029       -0.3252352926        8.8230363443
 H        -1.4003489076      -10.2787570863        1.7257298789
 H        -1.0768719176      -10.4196330395       -0.0071214670
 H         0.1743958313       -9.7058382770        1.0437254425
 H        -4.5637599768       -6.4767170705        0.7899832048
 H        -3.6956329104       -7.0237560081        2.1288230357
 H        -1.6962010691       -6.8585729811       -2.3964344241
 H        -0.4156939229       -7.8756359630       -1.9299226502
 H        -0.4868284444       -6.2987869601       -1.2346173272
 H        -4.0015570482       -8.5615949734        0.1022186415
 H        -3.8165178960       -7.6919255281       -1.3613946729
 H        -3.0610385569       -9.1316239095       -1.3250696735
 H        -3.8091043592       -5.1460181847        3.2168870541
 H        -3.0545407333       -4.1403265297        2.1315421421
 H        -5.3160442338       -2.6756982591       -0.8082349374
 H        -5.0099619517       -0.9449911805       -0.7828501919
 H        -6.8061497822       -1.2076196012        1.2595139046
 H        -7.3796476591       -2.3408736278        2.3072443009
 H        -7.0613036242       -2.8761032247        0.7431509846
 H        -3.9121299630       -2.1065975514        3.6164132161
 H        -5.5307136883       -1.2859621749        3.6526281697
 H        -5.2878122327       -2.9661862916        4.1653947136
 H        -3.7591229016       -1.8488999024       -2.5479278453
 H        -3.1222999668       -3.1209967824       -1.4365014876
 H         2.3085382764       -1.4263069516       -2.0467248983
 H         1.4133793972       -2.4213524137       -3.0920616318
 H        -1.1325006206       -0.9447398777        0.7780975776
 H         0.2139502132       -0.0992521185        0.1282088331
 H         0.5637707580       -1.7893107531        0.4905098324
 H        -0.6097778165       -3.5630599966       -0.5975406787
 H        -1.1613464980       -3.5592734402       -2.3349027974
 H         0.5169063233       -3.2421139797       -1.9386295602
 H         2.3010327540        0.5915273668       -3.6076202419
 H         3.1167764908       -0.7587454855       -4.2757466161
 H        -0.8943013019       -0.0931318901       -7.9337916320
 H        -1.1975789652       -0.3557438962       -6.2719343844
 H         2.6874801415        1.7642700570       -5.0996487136
 H         2.8162575411        2.3572012544       -6.7705263919
 H         3.7255014144        0.9032870535       -6.4598393276
 H         1.1842447640       -0.2409809852       -8.5222893255
 H         2.8552927686       -0.5444662226       -7.9897332959
 H         1.5533902985       -1.5962660048       -7.5420665620
 H        -3.1390563850        0.9609760278       -7.0885719052
 H        -2.1175905867        2.2107586338       -7.6707466160
 H         0.2883350864        3.8429566191       -4.2344978727
 H        -0.1871083542        5.2292980771       -5.0819754732
 H        -1.0105628155        4.5576879414       -6.8690693997
 H        -2.3493239555        5.4694781782       -6.6517001487
 H        -2.6732367059        4.0798934286       -7.5549540139
 H        -4.2705984714        4.6761486965       -4.8964291429
 H        -4.6263141477        3.5210740726       -6.2766027461
 H        -4.3222273238        2.8879436489       -4.6415619524
 H         0.7051690201        6.1543472671       -2.8775825392
 H        -1.0424805845        6.1570367343       -2.7419894471
 H        -0.8123078107        4.8289409833        2.6744993279
 H        -0.6051953500        3.0621803269        2.6720101012
 H         1.9936266715        5.1625617032        0.2150948278
 H         0.9318107866        6.5672892837        0.9561921109
 H         1.2557621951        6.5254788239       -0.6676894347
 H        -1.5638348448        6.5381722736        0.7922490049
 H        -1.8342412238        6.5919048835       -1.0255490283
 H        -2.4057295083        5.3821945753       -0.1400583972
 H         1.2626304866        4.0953639841        3.8421487562
 H         1.4897209478        5.2547781622        2.5562748838
 H         2.7692455282       -0.1355970540        3.7878591021
 H         4.4539206872        0.3103095637        4.1047417231
 H         3.6292753036        0.6108933591        1.6561830594
 H         5.0758651156        1.2147687294        2.2802199584
 H         4.4416807985        2.1361264496        0.8666696643
 H         5.2062050523        3.2650975764        3.5618866926
 H         4.7899003498        4.5405713559        2.5300086210
 H         3.8340454996        4.2334742890        4.0018360346
 H         2.4782521478        0.8270985880        6.3821764836
 H         2.4765766904       -0.9010134621        5.9385512224
 H         4.0467286532        2.2973230114       10.8100458177
 H         2.6639618714        1.1449981766       10.5118552526
 H         4.2751798711        0.5227139443       11.0091009546
 H         3.1291774600       -1.1185806830        9.7163311725
 H         4.0199844164       -2.1135149724        8.6332152082
 H         2.5524456987       -1.3203571603        8.1663911009
 H         5.8175798581       -0.2247982316        9.8747297036
 H         6.3350380423       -1.2364355009        8.4296565622
 H         6.5046515050        0.4299460984        8.3886431373
 Na       -1.4670869686        2.1131702524       -1.9925053962
