155

 C         0.7114077687       -0.8197927502       -0.3194243881
 C        -0.7833394525       -0.8622230369       -0.0979144947
 C        -1.7099100044       -2.0624056540       -0.7898932326
 C        -3.0102996959       -2.2826297111        0.1226447426
 C        -3.0507924422       -3.1854905816        1.3206420527
 C        -2.0231422196       -1.3937893656       -2.0994789663
 C        -0.8236124686       -3.3186864385       -0.8063622557
 O        -1.2804494415        0.1235646731        0.4279278476
 O        -4.1104342711       -1.8127703520       -0.2466120846
 C        -4.2988002727       -2.9752990105        2.1796303982
 C        -4.3129165632       -1.7277762089        3.0009908120
 C        -5.1735133744       -1.5226579149        4.3593041333
 C        -6.2495360637       -0.4673182181        3.7901540201
 C        -5.9809346018        1.0293143470        4.0285725822
 O        -3.7123054271       -0.7824215477        2.5676057215
 O        -7.3336943893       -0.8187067795        3.3561571762
 C        -6.0235676785       -2.7013951290        4.7978394074
 C        -4.2929854542       -0.9331499325        5.3973675710
 C        -6.9136941739        1.8843233859        3.2193183982
 C        -6.5099725789        1.8039211028        1.7160028714
 C        -7.7032464206        1.8271555510        0.6522781571
 C        -7.0638146420        2.9204609529       -0.4449736244
 C        -6.5031402449        2.2569791512       -1.7569444516
 C        -7.9665640210        0.3948406185        0.1350287751
 C        -8.9951643436        2.4658190277        1.2340215895
 O        -5.3545842405        1.6569876794        1.3420514206
 O        -7.1612304663        4.0704669747       -0.0896776090
 C        -5.5415802721        3.1754476616       -2.5524496124
 C        -4.0546658159        2.9022393528       -2.0990378257
 C        -3.0333463671        4.1495388561       -1.8636696510
 C        -2.4833004198        4.1110131959       -0.3519738467
 C        -1.5757740661        5.3204695460        0.0750505430
 O        -3.7176033225        1.7411517127       -2.1737896419
 O        -2.7845354232        3.1276190886        0.3253688664
 C        -1.6672348356        3.6747037809       -2.5701783599
 C        -3.6536298243        5.4261271958       -2.2491791784
 C        -1.1300669427        5.2021447884        1.4804753229
 C         0.4558794311        5.3326784125        1.7280352687
 C         1.0621742475        5.1149734210        3.0917220943
 C         1.4208921777        3.5563833256        3.2415782169
 C         2.3949791420        3.0217095922        2.2398872623
 C         2.3421385210        5.9319381921        3.1546592063
 C         0.1020816332        5.4912677374        4.2272031629
 O         1.0956676556        5.5195666688        0.6742091606
 O         0.8696587436        2.9603521724        4.0884114497
 C         2.9068362483        1.6950319285        2.5566544949
 C         3.7878908896        1.1715319763        1.4440636205
 C         5.0123679330        0.2790048640        1.7573472358
 C         5.3460289123       -0.3691208854        0.3252210043
 C         6.4130831599        0.1543249073       -0.6500255971
 O         3.3841844023        1.3034235892        0.3277859664
 O         4.7544353719       -1.3630189317        0.1302173349
 C         6.1804463190        1.1636012101        2.2130760065
 C         4.6966728361       -0.9177321874        2.7496255120
 C         7.1969601687       -0.9392580008       -1.3198513100
 C         6.8147253504       -1.1827173135       -2.8108528713
 C         7.2868077708       -2.5758251609       -3.5626679713
 C         6.3089218454       -3.6440346813       -2.9952260558
 C         4.7553991218       -3.3850909030       -3.2906817784
 C         7.1720713256       -2.3731570740       -5.0920813260
 C         8.7506839249       -2.9197850525       -3.2360312112
 O         6.2397135322       -0.3552690901       -3.4021230114
 O         6.7289228029       -4.5756729429       -2.3703440951
 C         3.9316963132       -4.6829423823       -3.5967362530
 C         2.3334766511       -4.4290033146       -3.6196710986
 C         1.2558812783       -5.3530727672       -4.2950833814
 C         0.0075867382       -4.4170746691       -4.7319990378
 C         0.3063103869       -3.2756003599       -5.8245497660
 O         1.9227097052       -3.3741885481       -3.0691846825
 O        -1.0234867158       -4.4702695140       -4.0829827709
 C         1.6920049216       -6.1389057403       -5.5578647387
 C         0.5796762576       -6.3457902215       -3.3663286603
 H         0.8977357852        0.2767456188       -0.4284073643
 H         1.3861900225       -1.3421619845        0.2679795277
 H         0.8788077411       -1.1684024518       -1.3139746634
 H        -2.8930551885       -4.2459980851        1.0849513092
 H        -2.2037995968       -2.7471364528        1.9869154797
 H        -2.8470224748       -0.7426877447       -1.9379620858
 H        -2.1594177076       -2.0407175423       -2.9701032758
 H        -1.1248950275       -0.8608997901       -2.4757653487
 H        -0.2592602617       -3.4513536051        0.1540548782
 H        -1.3438668068       -4.1835207729       -1.0546649918
 H        -0.1552325960       -3.1328557833       -1.6994739761
 H        -5.2830888071       -2.9534729770        1.6110251947
 H        -4.3921819559       -3.8331255572        2.8819305013
 H        -6.0202081938        1.1575655313        5.1406416741
 H        -4.9275620503        1.1490346892        3.7303047973
 H        -6.1910290886       -2.4978774127        5.8841224510
 H        -5.5954723645       -3.7050479900        4.7683879481
 H        -6.8672373034       -2.9029789178        4.1377836274
 H        -4.7191550171       -0.5640996889        6.3095023283
 H        -3.5261665452       -1.6108282954        5.7449091419
 H        -3.7912059109        0.0424542889        5.0313358456
 H        -7.0141184297        2.9316373456        3.5840417402
 H        -7.9265780704        1.4540369210        3.4581773411
 H        -5.9502410538        1.2499971086       -1.5071402682
 H        -7.3305948210        1.9928098061       -2.3857673130
 H        -7.0673570972       -0.2594054374       -0.0806351133
 H        -8.6904029228        0.3356407478       -0.7698501295
 H        -8.6066300798       -0.1051841112        0.8528408910
 H        -8.6618105431        3.1083887669        2.0814465061
 H        -9.5640781923        2.8555717509        0.4693859801
 H        -9.5422716943        1.6190997480        1.6683972371
 H        -5.4660928311        2.8382569079       -3.5994893498
 H        -5.8408451359        4.2489444893       -2.5044218983
 H        -0.7891334806        5.2259118520       -0.7409760150
 H        -2.1469861677        6.2832356809       -0.1349343618
 H        -1.1761602113        2.7653133516       -2.1427812256
 H        -1.0210667747        4.5920151138       -2.5764819827
 H        -1.8643769899        3.5713440461       -3.6192990387
 H        -2.9738407948        6.2355665418       -2.1025772772
 H        -4.1474707739        5.5091840530       -3.2298544284
 H        -4.4670612869        5.6257824354       -1.5886670164
 H        -1.5163329968        4.3344446041        1.9953248701
 H        -1.3896608849        6.0618946305        2.1156437679
 H         1.7616056141        2.9260970484        1.3381197072
 H         3.1401354233        3.8466058447        2.1457743882
 H         3.0045113295        5.7510324672        2.3536184630
 H         2.9547728357        5.7947654622        4.0029023018
 H         2.2250456129        7.0538095247        3.1260962146
 H        -0.5123070195        4.6942732697        4.5502710571
 H         0.6641425937        5.8739477322        5.0147065799
 H        -0.4846734702        6.3861478619        4.0309257835
 H         3.3250297321        1.5679096827        3.5346984255
 H         2.0422430903        0.9758252266        2.6605172291
 H         5.7330663828        0.6344716550       -1.4413383730
 H         7.2318649440        0.7068755841       -0.0622420005
 H         5.9726789865        1.3636986739        3.3128622359
 H         6.5188251025        2.1299430852        1.6721240193
 H         7.0561563838        0.4758853958        2.1229058969
 H         3.6772381209       -1.3356492208        2.8675022550
 H         5.4198393315       -1.6648122666        2.4664612518
 H         4.9205587713       -0.7094818947        3.7934381511
 H         7.2059869768       -1.8723690320       -0.6386712900
 H         8.2160165160       -0.6280443429       -1.4862264924
 H         4.4396282841       -2.8591509723       -2.3213256004
 H         4.6368896771       -2.6536863837       -4.1007653567
 H         7.1654002856       -3.2933536055       -5.6321789478
 H         7.8770852596       -1.6899478279       -5.4836753000
 H         6.2281518362       -1.9029899330       -5.3577522983
 H         8.8522854877       -3.0453911187       -2.1243838424
 H         9.1662273835       -3.8150332547       -3.7289803094
 H         9.3896054685       -2.0730887397       -3.4431113865
 H         4.2906512958       -5.1954310120       -4.4641749966
 H         3.9650866513       -5.3099505225       -2.7260849667
 H         0.2776272755       -3.7933557244       -6.8500860798
 H        -0.5444772290       -2.5639573731       -5.8059874404
 H         1.2934884899       -2.7830264612       -5.6741303700
 H         1.8262768346       -5.5015030341       -6.3836227056
 H         0.8549558405       -6.6969076995       -5.8069388977
 H         2.5838060946       -6.7460428053       -5.3334683813
 H         1.3331810292       -6.9921039514       -2.8924872433
 H         0.0536513379       -5.7036496035       -2.6103142575
 H        -0.0793661613       -6.8968564947       -4.0555464050
 Na       -3.4196657919        0.6934569594        0.2042999119
