155

 C         0.7354439153       -0.7575534285       -1.4496552447
 C        -0.6879810809       -0.7068580832       -1.0682444706
 C        -1.3893829092       -2.1357585726       -1.2165156559
 C        -2.7963555193       -2.0329861364       -0.5753588898
 C        -2.8715992513       -2.8062473192        0.8025488547
 C        -1.5257874784       -2.2003263331       -2.8090096294
 C        -0.5265410044       -3.3403448750       -0.7700755740
 O        -1.2892015417        0.2676044140       -0.6128344907
 O        -3.8017154304       -1.5339818931       -1.0343593424
 C        -4.1913537106       -2.7088131292        1.5395001695
 C        -4.2965635447       -1.6196547466        2.6238725404
 C        -5.3098067041       -1.7866228385        3.8275008982
 C        -6.6863559136       -1.0954173001        3.2822637655
 C        -6.6302189138        0.4508198393        3.1860932799
 O        -3.8220935491       -0.5160334528        2.4322854212
 O        -7.6627058196       -1.7791648996        3.0705597480
 C        -5.5562979263       -3.2426059006        4.3405495567
 C        -4.8205834691       -0.9509714282        5.0311690793
 C        -7.6946026683        1.0062204224        2.2974211738
 C        -7.3247166027        1.0635996461        0.8509909813
 C        -8.3241119055        1.7335642424       -0.2528294384
 C        -7.3731931182        2.9438390249       -0.7863962108
 C        -6.7047107559        2.7253247113       -2.0889447927
 C        -8.6931523869        0.6533143356       -1.2401523150
 C        -9.6522122858        2.2648589385        0.3132057332
 O        -6.3392966005        0.5493105287        0.4317380228
 O        -7.2537934770        3.9686355961       -0.1326479375
 C        -5.5579660282        3.6824630710       -2.2776747619
 C        -4.3729204831        3.1896539439       -1.3933506565
 C        -3.1169224836        4.0870683896       -1.2282832934
 C        -2.6902840329        4.0883956641        0.3513513167
 C        -1.8699900140        5.2766107821        0.9362964304
 O        -4.4243167553        2.0286163523       -0.9777669379
 O        -3.0140341659        3.2024778671        1.0408054056
 C        -1.9997066585        3.3516909907       -2.0601002808
 C        -3.3256680070        5.5739649660       -1.6951000708
 C        -1.0219638258        4.8803953980        2.0982177845
 C         0.2754441663        5.6932285013        2.1320035372
 C         1.2091928023        5.3019693477        3.3710618408
 C         1.7008329865        3.8290246130        3.3047415093
 C         2.4790768897        3.3226306535        2.0822450220
 C         2.4022056529        6.3368292133        3.2037724637
 C         0.4048451148        5.5571052341        4.6889663760
 O         0.4972034020        6.7381831098        1.5275925510
 O         1.5560110537        3.0639851320        4.2017408724
 C         3.7383043572        2.6239519713        2.4989488622
 C         4.2585905541        1.6034879004        1.4502305063
 C         5.2080199038        0.4718349342        2.0707286293
 C         5.5206489104       -0.4893516137        0.7590984185
 C         6.4973066836        0.1211956138       -0.2753412733
 O         3.9644525483        1.5566946620        0.2902352787
 O         5.2083957196       -1.6165836753        0.6232142959
 C         6.6119495755        0.9762380325        2.5337530536
 C         4.4514040957       -0.3087622625        3.1107574803
 C         7.3661624921       -0.9622617325       -0.9880983641
 C         6.9412724061       -1.0574442658       -2.4849113061
 C         7.3432204621       -2.4126481984       -3.1051465970
 C         6.3832976310       -3.5885646437       -3.0035755385
 C         4.8452547283       -3.3683770033       -2.7864602136
 C         7.2520007806       -2.2708496497       -4.7260911722
 C         8.8193181790       -2.7708173846       -2.6772314325
 O         6.3473708414       -0.1414225365       -2.9447370016
 O         6.7760812810       -4.6998080517       -3.2684238446
 C         4.0631027040       -4.4925290285       -3.4148068294
 C         2.5843068875       -4.2110211915       -3.3022481089
 C         1.5935493902       -5.3552053221       -3.8114422356
 C         0.0646836931       -4.8366314753       -4.2434533978
 C        -0.0451309929       -4.0154594225       -5.5058270247
 O         2.1815768605       -3.1540945628       -2.8276771351
 O        -0.8797899236       -5.2091799620       -3.6366752863
 C         2.2595979074       -6.1050514772       -5.1020114355
 C         1.4454356148       -6.3058179610       -2.5959754163
 H         1.1038931496        0.1968497740       -1.9264126082
 H         1.2400107951       -0.7407264880       -0.5181782007
 H         1.0388392384       -1.5956123125       -1.9638347207
 H        -2.4293396315       -3.8624596003        0.9591750075
 H        -2.2001894976       -2.2251810356        1.3993271202
 H        -2.0710630672       -1.3669796066       -3.2860877162
 H        -2.1300967870       -3.0763420613       -3.0389119840
 H        -0.5182674075       -2.1952591315       -3.2826948593
 H        -0.2100442088       -3.1293817239        0.3249598983
 H        -1.0637968817       -4.2467685342       -0.8378716345
 H         0.3996003230       -3.3127148039       -1.3096472724
 H        -5.0676529261       -2.5276524777        0.8438810423
 H        -4.3692310196       -3.7562820143        1.9865368987
 H        -6.6388152978        0.7722569288        4.2528512401
 H        -5.6349617565        0.6483375814        2.7379387763
 H        -6.4009688112       -3.1828110128        5.0549118347
 H        -4.5882452227       -3.5811221098        4.7863110226
 H        -5.8874919152       -3.9410988601        3.5577982711
 H        -5.6732559731       -0.7638942159        5.6419457870
 H        -4.1637500004       -1.5953505871        5.6421980352
 H        -4.2488241232        0.0393201492        4.8057196093
 H        -7.9810653708        2.0064513250        2.7292843461
 H        -8.5874564455        0.4562736814        2.4573183007
 H        -6.2875297663        1.6655349320       -2.1168299226
 H        -7.4577183184        2.8752730166       -2.8683330459
 H        -7.9265007152       -0.1124931663       -1.4520513854
 H        -9.0158710764        0.9939450569       -2.2949995384
 H        -9.5518017982        0.1197663203       -0.8130763474
 H        -9.5614369380        2.8250452628        1.3045799032
 H       -10.0541064827        2.9409452081       -0.4320601250
 H       -10.2948630284        1.4465723769        0.4742834248
 H        -5.1851475421        3.7723540767       -3.3441945315
 H        -5.7393942501        4.7155851022       -2.0288313110
 H        -1.1611828418        5.6256067670        0.1087697214
 H        -2.5802405991        6.0913086909        1.2185250841
 H        -1.4148770969        2.6624397548       -1.4374794068
 H        -1.3075503149        4.1340451604       -2.4483026881
 H        -2.3928844943        2.8600303341       -2.9568695221
 H        -2.3830460379        6.0228991972       -1.8710385718
 H        -3.7094698678        5.7654095460       -2.6616872317
 H        -3.8204479146        6.1887114895       -0.9288236691
 H        -0.8180878020        3.7876255597        1.9775676655
 H        -1.7271296744        5.0069351920        2.9280948799
 H         1.7315414452        2.6943938330        1.4289918174
 H         2.7316773913        4.1600358653        1.4236592787
 H         2.8846829340        6.3243702351        2.2805313614
 H         3.2243343598        6.2475746036        3.9384814361
 H         2.0056037015        7.3514967130        3.3185407637
 H        -0.5824659723        5.8369107600        4.5382121254
 H         0.3571183053        4.6517838112        5.2540491822
 H         1.0639202997        6.2804494782        5.2421617373
 H         4.5319980184        3.3161665564        2.8181282017
 H         3.4166128203        1.9243942767        3.2419258121
 H         5.7670035410        0.6760337004       -1.0427091614
 H         7.0236442979        1.0680414116       -0.0102308710
 H         6.5679447838        1.3144975317        3.6373104700
 H         7.0677809703        1.8057123243        1.8665046926
 H         7.1938708189        0.0084169031        2.6396033820
 H         3.4122540969       -0.5178890871        2.7339283805
 H         4.8598026753       -1.2550161357        3.3953897621
 H         4.4151154516        0.2040741478        4.0165393297
 H         7.1912188735       -1.8561249766       -0.4129918454
 H         8.5249479398       -0.7454368853       -0.9651629229
 H         4.7123417190       -3.5654182975       -1.7337845201
 H         4.5888763413       -2.2771101813       -3.0769916545
 H         7.5605757987       -3.1775427937       -5.2387387973
 H         7.9731175384       -1.5015096407       -5.0854386330
 H         6.2489350563       -2.0802016260       -5.0583519987
 H         8.7849382428       -3.0510841085       -1.5947749271
 H         9.1076117150       -3.5965364310       -3.3072284648
 H         9.6060209925       -2.0214741739       -2.8122986654
 H         4.2308383976       -4.5948768909       -4.4349927565
 H         4.2625623363       -5.5270315987       -2.9623205346
 H         0.7835058467       -3.2622362985       -5.4404406037
 H         0.1586283049       -4.5871267796       -6.4212350381
 H        -1.0764059517       -3.5195365935       -5.5828233172
 H         2.6513769380       -5.3177526306       -5.7083850414
 H         1.4343570900       -6.5928203907       -5.6441319387
 H         3.0529205460       -6.8489967984       -4.8420412178
 H         2.1523703892       -7.0793838952       -2.8758993941
 H         1.6101215096       -5.8652778236       -1.5698115263
 H         0.3929207386       -6.6105502858       -2.6794333989
 Na       -3.6219068782        0.5600866251        0.3086271558
