155

 C         0.3998763505       -0.2114831424       -1.8091448758
 C        -0.8234742467       -0.5890238128       -0.9848423214
 C        -1.4269674027       -1.9536990819       -1.3434773402
 C        -2.7850287810       -1.9001140668       -0.5786116988
 C        -3.0709285166       -2.7378941796        0.6516416034
 C        -1.7222186970       -2.1439799758       -2.9045684519
 C        -0.3560539965       -3.1400190125       -0.8970446589
 O        -1.3190924097        0.2091861676       -0.2278129810
 O        -3.6907626184       -1.2267583400       -1.0117730040
 C        -4.4032112900       -2.5039085818        1.3253639882
 C        -4.3936056753       -1.5151432577        2.4880594910
 C        -5.2710053218       -1.7630008597        3.7182968807
 C        -6.7129926476       -1.1731586493        3.1026458174
 C        -6.8398008460        0.3590863071        2.9372650102
 O        -3.8780478045       -0.4342254594        2.3131938933
 O        -7.5012782157       -1.9787969289        2.6898237657
 C        -5.3857249199       -3.2968784448        4.0245173414
 C        -4.6515801349       -0.9303721684        4.8121159619
 C        -7.8496527825        0.8427290864        1.8505037686
 C        -7.4543373599        0.7285573267        0.4071087834
 C        -8.3624508283        1.5651817682       -0.6404566366
 C        -7.6208306847        2.9235269363       -0.9071981175
 C        -7.0545239946        3.3774592889       -2.2412507330
 C        -8.7225928947        0.7348595722       -1.9397654334
 C        -9.8388350781        1.9467962197       -0.0761691046
 O        -6.4414510592        0.1189202666        0.1434067877
 O        -7.3912890993        3.6317287409        0.0613941622
 C        -5.7010747205        4.1469408744       -2.0503834073
 C        -4.5893000949        3.2917227893       -1.3602586395
 C        -3.1480769873        3.8373751937       -1.0604590641
 C        -2.7525794050        3.6677049861        0.4988933827
 C        -1.8331861842        4.7154213643        1.1353126390
 O        -4.8347360666        2.0886688163       -1.1836164880
 O        -3.1614471347        2.7534217021        1.1322212138
 C        -2.0283557321        3.0911697674       -1.8099264013
 C        -3.1853745954        5.4056007959       -1.4504618285
 C        -0.9375324194        4.5103472808        2.3644522079
 C         0.1755128775        5.6111056941        2.5334309036
 C         1.4010269422        5.5390196717        3.5422114387
 C         1.9290555788        4.0858693137        3.3711094899
 C         2.9729489484        3.7950868802        2.1959177360
 C         2.3488193747        6.7113957111        3.2358696718
 C         0.8873790300        5.6936946672        4.9478721986
 O         0.1340125938        6.6667033173        1.9327082310
 O         1.4987407118        3.1355135110        3.9617340712
 C         4.0891710213        2.9024753251        2.6370424265
 C         4.2661085905        1.7178232896        1.6801444660
 C         5.1460748561        0.5641630227        2.2294900680
 C         5.7683047868       -0.4462994429        1.0226061624
 C         6.5573134350        0.1586405219       -0.1840439950
 O         3.8035011696        1.6637340228        0.5550627812
 O         5.5774835799       -1.6271708110        1.0814219277
 C         6.3513758345        1.1338599707        3.0925476600
 C         4.2455616008       -0.2946610638        3.1372141299
 C         7.3496205772       -0.9530511002       -0.9023203618
 C         6.9672798369       -1.0584566561       -2.5055816836
 C         7.5333595425       -2.2867422208       -3.3469142632
 C         6.4321374652       -3.4618923773       -3.0685818258
 C         4.8910350355       -3.1986184954       -3.2338488310
 C         7.7742747008       -1.9074988120       -4.7599460719
 C         8.9002663143       -2.8105473944       -2.7449040200
 O         6.0874175923       -0.3340076675       -2.8885461530
 O         6.8499981211       -4.5709498497       -2.8422994062
 C         4.1642744933       -4.4856289866       -3.5753941036
 C         2.5629914989       -4.3931562838       -3.4491923861
 C         1.7415022672       -5.6657509317       -3.6966460159
 C         0.2797384554       -5.0626530387       -4.0849178594
 C         0.1163921041       -4.3978013200       -5.4336824119
 O         1.9872884620       -3.3681037507       -3.0701066329
 O        -0.5513676054       -5.1635041936       -3.2649763860
 C         2.3951704449       -6.5401168044       -4.8148018863
 C         1.5956703004       -6.5757832337       -2.4091000471
 H         0.9404695626        0.7134469001       -1.4947526106
 H         1.1460070700       -0.8891161123       -1.6758380368
 H         0.1120691454       -0.1887007776       -2.8347378151
 H        -2.6453947376       -3.8163142724        0.6944139676
 H        -2.4093523915       -2.2972481713        1.3771889519
 H        -2.2171290066       -1.3130217168       -3.3382661394
 H        -2.4529408370       -3.0071820403       -3.0107671040
 H        -0.8690844219       -2.4590906222       -3.5918479045
 H        -0.2283569676       -3.1633200318        0.2089436254
 H        -0.5951892768       -4.0563626608       -1.2849523543
 H         0.6157973419       -2.7993335443       -1.2749710305
 H        -5.0972128256       -2.1870513459        0.5753111752
 H        -4.7864700670       -3.4900161073        1.6949459773
 H        -7.1599270877        0.7568694803        3.9245561531
 H        -5.8279209727        0.7095432290        2.7221536241
 H        -5.2630441363       -3.4321047163        5.0850919260
 H        -4.7208766570       -3.9084980589        3.4737290029
 H        -6.3343358561       -3.5515246658        3.6074862511
 H        -5.1721290806       -0.9580317698        5.7327649502
 H        -3.6911092884       -1.3120736508        4.9246895712
 H        -4.5332038097        0.0543658205        4.3751783963
 H        -8.0750056139        1.8825510779        2.2877049129
 H        -8.8071303629        0.3131161495        2.0057499094
 H        -6.9277101489        2.3901019360       -2.8673830219
 H        -7.7946860702        3.9533894502       -2.7786131738
 H        -7.8534534857        0.5765717400       -2.5434941062
 H        -9.4953878450        1.1413152712       -2.6777670433
 H        -9.2585607122       -0.2568594455       -1.6716790815
 H        -9.8586632734        2.1958397728        1.0079245934
 H       -10.1950320145        2.7127907362       -0.6956598414
 H       -10.5985406383        1.1781932145       -0.1006737742
 H        -5.2494266278        4.5958126119       -2.9948525944
 H        -5.8421972184        5.0465752650       -1.4654513801
 H        -1.0946773336        4.9942215094        0.3180935450
 H        -2.3204997449        5.6986105281        1.3202810345
 H        -2.2943592994        2.0408065518       -1.9060487645
 H        -1.1016602753        3.2233182436       -1.2528857584
 H        -1.8961263655        3.3944927799       -2.8065144710
 H        -2.3326911794        6.0549206471       -1.2568781392
 H        -3.5241887353        5.5456546234       -2.5050332471
 H        -3.9531003483        5.9372822243       -0.8256306692
 H        -0.4559947336        3.5550883945        2.4071769805
 H        -1.5303783656        4.5512988538        3.2495734085
 H         2.4664715141        3.3817429553        1.2664953577
 H         3.4482185957        4.7191169194        1.9586047863
 H         2.5158376160        6.7199456232        2.1947730962
 H         3.2977465010        6.6477675967        3.7652736661
 H         1.9685902626        7.7408415545        3.4765856933
 H         0.1435387322        6.5101570943        4.9740221796
 H         0.4262227119        4.7398576310        5.2825014650
 H         1.8390334106        5.8867001898        5.5351258937
 H         5.0454876986        3.4835298769        2.6362292714
 H         3.9228582195        2.4208697629        3.6050114366
 H         5.9013166655        0.6873750341       -0.9483312761
 H         7.1008889358        1.0931180949       -0.0804233313
 H         5.9573127180        1.7925266257        3.8684518827
 H         7.0740430126        1.6612445391        2.4915814743
 H         6.9354152988        0.2205577471        3.4186647405
 H         3.5380635573       -0.7278606266        2.4460312449
 H         4.6748534050       -1.0362809042        3.7276773732
 H         3.5646993911        0.2829083150        3.7161214357
 H         7.2969627578       -1.9211835603       -0.4676121173
 H         8.4440481394       -0.6258623825       -0.7632570616
 H         4.6452105684       -2.6685857214       -2.3099210236
 H         4.8024982240       -2.3086257875       -3.9759585643
 H         8.0053310553       -2.7369568140       -5.4503788837
 H         8.6491426078       -1.2159477806       -4.6928529314
 H         6.9306305336       -1.3523024722       -5.1839267160
 H         8.8636553986       -2.8252681879       -1.6418937308
 H         9.1580517048       -3.6642786340       -3.3346477301
 H         9.6856217155       -2.0657905914       -2.8589158873
 H         4.4434175290       -4.7815011840       -4.5124043681
 H         4.5101383019       -5.2995523556       -2.8554242202
 H         0.3433249333       -3.3126480176       -5.3363166760
 H         0.9084268881       -4.7056339681       -6.0919612470
 H        -0.9078921543       -4.5277908934       -5.7558036311
 H         2.4587090214       -5.8815851732       -5.6862002649
 H         1.8322014342       -7.4242427522       -5.1625638761
 H         3.4614172371       -6.7545912354       -4.4641276516
 H         2.5311553982       -7.0704846857       -2.3916540560
 H         1.5811486644       -6.0154045262       -1.4698331755
 H         0.6903197988       -7.1036377561       -2.5169912702
 Na       -3.6413825478        0.7267873374        0.2151657942
