155

 C         0.7475844725       -0.5754387646       -1.1145085399
 C        -0.8352481052       -0.6683194683       -1.1668916413
 C        -1.4778666264       -2.0157101585       -1.5690149880
 C        -2.9980087882       -1.9969360187       -1.1470045579
 C        -3.4216607426       -2.9959682474       -0.1595559405
 C        -1.5974911274       -2.0849617739       -3.1242976655
 C        -0.7285395653       -3.2588843439       -1.0634626157
 O        -1.4235527353        0.4230130562       -1.0204129608
 O        -3.8061022282       -1.2048425927       -1.5758194888
 C        -4.7188448170       -2.6545013261        0.6204018862
 C        -4.4852525932       -1.6133101696        1.7340718563
 C        -5.3415019882       -1.9155947460        3.0759592060
 C        -6.8403191026       -1.7964992221        2.5011063012
 C        -7.6429922446       -0.4706046581        2.5561687421
 O        -3.7899718472       -0.6062734549        1.7298667908
 O        -7.3921356267       -2.7641629740        2.0042737943
 C        -5.2345582430       -3.3110712657        3.6181327182
 C        -4.9984152153       -0.9088856392        4.1186464498
 C        -8.2854185788       -0.0492116353        1.1855808924
 C        -7.2166187087        0.4807643843        0.1129990053
 C        -7.7260703320        1.3588666888       -1.0681951575
 C        -7.6742777157        2.8603914506       -0.6383787646
 C        -7.0884969805        3.7939272387       -1.7133188643
 C        -6.7782709433        1.1767501094       -2.3397245936
 C        -9.1619742463        0.9777905865       -1.3993984647
 O        -6.0682436071        0.0861809582        0.0461025322
 O        -8.2147754351        3.3174877808        0.3129841965
 C        -5.8945622663        4.7103448267       -1.4367664940
 C        -4.9201278042        3.9150991703       -0.6938492372
 C        -3.4268165867        4.5013200314       -0.8410095290
 C        -2.6460358953        3.9894982308        0.3849485669
 C        -2.0088695134        5.0604042992        1.2709701061
 O        -5.2497073429        2.9611942996       -0.0723688569
 O        -2.7453370953        2.8394419407        0.6081942748
 C        -2.8931263690        3.7113281464       -2.0998286211
 C        -3.3694052430        5.9988560854       -0.9492148313
 C        -0.7189766871        4.5082462012        1.9827117872
 C         0.1424055303        5.6731669663        2.5621578230
 C         1.2682399758        5.2429476238        3.5939681817
 C         2.2140209079        4.0999374320        3.1677841738
 C         3.5527226665        4.4543405201        2.4986979094
 C         1.7615758724        6.5596664556        4.1567970723
 C         0.3576924910        4.5140282356        4.7710265150
 O         0.0673148061        6.8462136649        2.2843623280
 O         1.8443132247        2.8976913148        3.2236482127
 C         4.5565433626        3.3791101893        2.9242188595
 C         4.3117189887        2.0490739121        2.1769062208
 C         4.9541119113        0.7491686826        2.8711791764
 C         5.3306344075       -0.4224848196        1.6470264491
 C         5.8055382017        0.1895873985        0.2626031120
 O         3.7056222597        2.0069383239        1.1351628637
 O         5.3801361009       -1.5798827620        1.9069590482
 C         6.2249950612        1.1239057296        3.6859963509
 C         3.9455445064        0.0211495473        3.7798239492
 C         6.6302247425       -0.8543072070       -0.4642697014
 C         6.2975584851       -0.8627316985       -1.8982870155
 C         7.1311950856       -1.8097753344       -2.9763962325
 C         6.3520379524       -3.1931640658       -2.9041527608
 C         5.4743898870       -3.4578370523       -4.2371863050
 C         7.1690291750       -1.0813137579       -4.3950737388
 C         8.5862599523       -1.9149667112       -2.5234021003
 O         5.3564005816       -0.1959604723       -2.3328983691
 O         6.5450589813       -3.9368804236       -1.9754523381
 C         4.8339015347       -4.8970439524       -4.2579589983
 C         3.3081971337       -4.7529323649       -4.0130802041
 C         2.4327841644       -5.8595572420       -3.2328878685
 C         0.9674690429       -5.7128221878       -3.5413871564
 C         0.5542872420       -5.7455857700       -4.9838866735
 O         2.8486567816       -3.7452304663       -4.3906803244
 O         0.0913436330       -5.4655395635       -2.6752937875
 C         2.9417664099       -7.1507157591       -3.8434514024
 C         2.7334141200       -5.6610056535       -1.7449041259
 H         1.3479524447       -1.4587054459       -1.3350252764
 H         1.2368711216        0.3608195148       -1.5841905437
 H         1.0158791853       -0.5061591316       -0.0615370090
 H        -3.4934461281       -3.9435183930       -0.7135270149
 H        -2.6566531125       -3.0791022743        0.5846495046
 H        -2.4281345450       -1.4733890504       -3.5142379839
 H        -1.9319879628       -3.0622324052       -3.3717515838
 H        -0.7914683654       -1.6536777595       -3.6418813441
 H        -0.6049406494       -3.3965396687       -0.0320106550
 H        -1.4194697947       -4.1272506848       -1.3711201790
 H         0.2742131595       -3.3568035878       -1.5239520269
 H        -5.4676067984       -2.2311561920       -0.0783502020
 H        -5.2355187881       -3.5441424866        1.0556002933
 H        -8.4800275672       -0.7824967511        3.2535147706
 H        -7.1366262511        0.3046941241        3.0429964495
 H        -4.7123107332       -3.1658757345        4.5872549162
 H        -4.6761159918       -3.9591832649        2.9490681900
 H        -6.1534252961       -3.9269102858        3.6495456228
 H        -5.7718370608       -1.0785133760        4.9030564961
 H        -3.9637260766       -1.1660796749        4.5728582439
 H        -4.9111355874        0.1205780639        3.6813274806
 H        -8.8783977480        0.8063652142        1.4953529646
 H        -8.8848639441       -0.8322934100        0.7770092218
 H        -6.7809529771        3.2328948398       -2.5517699409
 H        -7.9337704426        4.4593681193       -2.0804742522
 H        -5.8112221447        1.5915764331       -1.9542935175
 H        -7.1103297505        1.6620079334       -3.2278856711
 H        -6.7092900117        0.1809782010       -2.5797552083
 H        -9.8619645502        1.4492691453       -0.7499228704
 H        -9.5438350354        1.0189440051       -2.4260860793
 H        -9.3283059296       -0.1188058566       -1.1988343689
 H        -5.5460940995        5.0907612637       -2.4051780652
 H        -6.2896237027        5.4695947647       -0.8066227078
 H        -1.6205186548        5.8838493156        0.6886725977
 H        -2.7493997916        5.3832391771        1.9761083469
 H        -2.5940873362        2.7004951957       -1.8315488698
 H        -1.9193072873        4.1497318331       -2.3553700199
 H        -3.5673604301        3.8975377041       -2.9229459827
 H        -2.3183817803        6.2779246286       -1.0129887339
 H        -3.9184264879        6.2422113803       -1.8882906629
 H        -3.8542831545        6.3983251164       -0.0912791019
 H        -0.0496445513        3.9233751847        1.2647311866
 H        -1.0124821289        3.7052908269        2.7244384760
 H         3.4914052516        4.5086466325        1.4059491139
 H         3.8450470519        5.4537465044        2.9126889933
 H         2.4086339949        7.1723349012        3.4545407331
 H         2.2603660358        6.3154931030        5.0563718118
 H         0.8617088736        7.1230416527        4.3407078628
 H        -0.5744155030        5.1354483476        4.8429654224
 H         0.0456918056        3.5497136060        4.3938269288
 H         0.9367678866        4.5069009263        5.6476275501
 H         5.5272326959        3.7579357624        2.5752601022
 H         4.7257999779        3.2570411122        3.9992353851
 H         4.9845371013        0.4305397675       -0.3913611135
 H         6.4528094399        0.9933211620        0.4956149837
 H         6.0391742295        1.9595714350        4.4434301041
 H         7.0462182730        1.6373003016        3.0294323727
 H         6.6156865741        0.1869171617        4.1149204217
 H         2.9871927860        0.1076178666        3.3359836056
 H         4.2520756301       -1.0077058487        3.6882928971
 H         3.9908840225        0.2754075400        4.8258590244
 H         6.5804773561       -1.8081089097        0.0502323009
 H         7.7368980595       -0.5388094961       -0.3629913813
 H         4.6848618803       -2.7679404707       -4.4154338941
 H         6.1136548417       -3.4748814761       -5.1357365331
 H         7.8919313431       -1.5033896714       -5.1224280764
 H         7.5134068388       -0.0768762910       -4.1718717337
 H         6.1352299671       -1.0322678856       -4.8275722192
 H         8.6355336932       -2.3332410830       -1.5385095380
 H         9.2321014379       -2.4629915286       -3.2206527245
 H         9.0347998315       -0.9372949313       -2.6374472600
 H         4.9621198540       -5.4327846470       -5.1563685732
 H         5.2593904838       -5.4283934785       -3.3667040331
 H         1.3189092483       -5.6147641939       -5.7590708854
 H        -0.2411835379       -6.5291205614       -5.1757765614
 H        -0.1441635740       -4.9003477191       -5.0947863286
 H         2.6823550511       -7.3079867869       -4.9106514457
 H         2.4123253928       -7.9738654131       -3.3849991432
 H         4.0107492791       -7.3752733844       -3.7941186763
 H         3.2270333338       -6.4999378344       -1.1798097294
 H         3.1480246439       -4.6638752237       -1.5266803410
 H         1.7278442797       -5.5420052655       -1.2869247873
 Na       -3.6573929100        0.7923060564       -0.3616297129
