155

 C         0.8978474918       -0.5931259402       -1.1068145929
 C        -0.5948751436       -0.7462196865       -1.2166648202
 C        -1.2913575253       -2.1138437914       -1.7372305922
 C        -2.7943368831       -1.8479762126       -1.1838107814
 C        -3.4432556354       -2.9366632010       -0.3421924501
 C        -1.3055801394       -2.1930159837       -3.2386992328
 C        -0.6742736044       -3.3278248300       -1.0642727068
 O        -1.2583897095        0.2884187627       -1.1145479641
 O        -3.4833460926       -0.9008212804       -1.5626652969
 C        -4.7715395477       -2.4732657136        0.3455468006
 C        -4.4990486844       -1.7178787611        1.5715874097
 C        -5.4735654029       -1.9281649355        2.7712697127
 C        -6.9234765571       -1.8440798724        2.2358980057
 C        -7.8440949862       -0.5865724906        2.3569153430
 O        -3.7017097148       -0.7613411992        1.4977308142
 O        -7.4303494198       -2.7938980053        1.7073305854
 C        -5.0874066012       -3.3715939322        3.3936987924
 C        -5.1850635671       -0.8640279182        3.9576756259
 C        -8.4419262734       -0.2284721808        1.0008572474
 C        -7.3137522331        0.3937277609        0.0612880187
 C        -7.8560780669        1.1377865193       -1.3514535604
 C        -7.7380922864        2.5501049102       -0.8173827614
 C        -7.2175143171        3.6719471904       -1.7678810425
 C        -6.8191983821        0.7385406050       -2.4460443782
 C        -9.3241030163        0.9259912970       -1.7504096225
 O        -6.1589577822        0.5277670470        0.4199726858
 O        -8.1267413673        2.7972249667        0.3115373578
 C        -6.3889117388        4.8531880317       -1.0911875019
 C        -5.0487650752        4.1375057303       -0.7453386329
 C        -3.6889336502        4.7924530336       -0.8679573817
 C        -2.6175386319        4.1878760707        0.2281723291
 C        -1.8481874152        5.1111973634        1.0928403581
 O        -5.1453953822        2.9687342108       -0.4501900320
 O        -2.4238760247        2.9991335637        0.1497896989
 C        -3.0192800382        4.2477979193       -2.1496756997
 C        -3.6916811161        6.2823605862       -0.8957616612
 C        -0.7156459519        4.5388264769        2.0566274922
 C         0.2895060839        5.5195020493        2.7394150466
 C         1.1321625424        4.9647415895        4.0348375988
 C         2.1219246956        3.9214444445        3.4542139991
 C         3.4229480351        4.4905567548        2.7192302213
 C         1.8163229544        6.2329076138        4.5792809345
 C         0.2241324763        4.3574995807        5.0774994313
 O         0.6444515993        6.5611638360        2.2118514372
 O         1.7427268185        2.7628953172        3.4042635734
 C         4.6066023296        3.5674962593        2.9475617715
 C         4.3144037584        2.1789307311        2.2078216682
 C         4.9126678266        0.8825571909        2.9482794508
 C         5.0714950490       -0.3051356584        1.8586520096
 C         5.6370809534        0.1318802010        0.4939995082
 O         3.7112118242        2.1459084948        1.1570056166
 O         4.8817164445       -1.4305091347        2.0676705350
 C         6.2577558886        1.0979041724        3.6275904122
 C         3.8311669586        0.4632094440        4.0471056845
 C         6.1925373138       -1.0581491603       -0.3548670564
 C         6.0573243918       -0.7830108856       -1.8727592965
 C         6.9998993316       -1.5438535033       -2.9314011219
 C         6.3388844043       -3.0091281774       -3.0141054061
 C         5.5746111999       -3.5011211137       -4.2543635390
 C         7.0345065414       -0.7468400801       -4.2755535342
 C         8.5227432044       -1.6942113510       -2.4376886370
 O         5.3364167599        0.1080873881       -2.2277424043
 O         6.4519190445       -3.6434412744       -1.9830315978
 C         5.0207610421       -4.8882975606       -3.9490733607
 C         3.4801182034       -4.9563555028       -4.0434573200
 C         2.7073826695       -5.9486621776       -3.2332697487
 C         1.1886593099       -5.9588860364       -3.4878086723
 C         0.7515703371       -6.1225115029       -4.9562176679
 O         2.9735879430       -4.1915935367       -4.8198189809
 O         0.3999939431       -5.8351595619       -2.6014846187
 C         3.2130338921       -7.3197608104       -3.4797844313
 C         2.8972220856       -5.5267196333       -1.7516119733
 H         1.3975692245       -0.2480813805       -2.0561936765
 H         1.0749000971        0.1442742639       -0.3623408035
 H         1.4705082176       -1.4573238146       -0.9726445409
 H        -3.7086418675       -3.7382891657       -1.0240849497
 H        -2.8031771559       -3.3950693765        0.4053284142
 H        -1.7095468093       -1.1914158091       -3.6765201721
 H        -2.0021540433       -2.9937375939       -3.5497020556
 H        -0.3196366457       -2.2635441012       -3.6796228768
 H        -0.7475221572       -3.1757752955        0.0352065904
 H        -1.3066015496       -4.2549787238       -1.2083181534
 H         0.3425046139       -3.5307064630       -1.3422841722
 H        -5.4448059618       -1.8510536192       -0.3384834648
 H        -5.4183555278       -3.3548207012        0.5196973037
 H        -8.6739536397       -0.9179359873        3.0939774920
 H        -7.3744097247        0.2552776036        2.8187106649
 H        -5.8131810751       -4.0161776368        3.8702958268
 H        -4.3532233842       -3.1417149123        4.1576836950
 H        -4.5417802659       -3.9687316828        2.6321563540
 H        -5.8805250664       -1.0906963525        4.6955925933
 H        -4.2203605183       -0.9152245965        4.4274480404
 H        -5.3928569623        0.1685920588        3.5683845472
 H        -9.0805782236        0.6409977825        1.1238700581
 H        -8.9960640600       -1.0338814523        0.5522114831
 H        -6.4559403889        3.3251204802       -2.3598828211
 H        -8.0606539432        3.9775523730       -2.4836879045
 H        -5.8177495865        0.8235411221       -2.0313569626
 H        -6.9911973046        1.4475940951       -3.2989562930
 H        -7.1286766496       -0.1612374120       -2.8738080059
 H        -9.9804069029        0.8133360908       -0.9206424539
 H        -9.6343217257        1.7322528035       -2.4467230087
 H        -9.4987714455        0.0191668511       -2.2749554706
 H        -6.2926271049        5.6446368387       -1.8638275200
 H        -6.7930891265        5.2358373255       -0.1354019824
 H        -1.2924710707        5.8383428326        0.5175391086
 H        -2.5556691876        5.6280931594        1.7347762339
 H        -2.8207289758        3.2150105712       -1.9469228142
 H        -2.0460200567        4.6760943314       -2.2803644436
 H        -3.6634523698        4.3677554139       -3.0127617116
 H        -2.6386050495        6.5788168948       -1.0798437088
 H        -4.4548595017        6.6178471284       -1.6370636487
 H        -4.0238807646        6.6675389395        0.0574144874
 H        -0.1617822838        3.7004634461        1.5235695182
 H        -1.3459642061        4.1893609805        2.9385922584
 H         3.1545857849        4.6128386910        1.6533371307
 H         3.6532685949        5.5458370667        3.1520998288
 H         1.8921837721        7.0517449590        3.8234768243
 H         2.7667818551        5.9490959657        4.9809784948
 H         1.1833820315        6.5925735003        5.3322025397
 H        -0.5066150902        5.1678406976        5.3926358051
 H        -0.4261510228        3.5663213548        4.5850063501
 H         0.8043851933        3.9360727192        5.9209951050
 H         5.4249374200        3.9878388348        2.3583165744
 H         4.8921826961        3.5993817896        4.0027641048
 H         4.6986374796        0.2973702035       -0.0184416803
 H         6.4024780485        0.8692584099        0.5824690351
 H         6.1106586356        1.7763357799        4.5362840409
 H         7.0333123873        1.5265969936        2.8850576772
 H         6.7801521893        0.2094879390        4.0506603144
 H         2.9265182087        0.1382541770        3.5324785979
 H         4.2716129834       -0.2968429960        4.6368851866
 H         3.6075166807        1.2767435939        4.6714064940
 H         5.5703473208       -1.9605636153       -0.0877350910
 H         7.2395615292       -1.3898036358       -0.0214046161
 H         4.7590383926       -2.8314092688       -4.4342704804
 H         6.2142940397       -3.5574244849       -5.1352065944
 H         7.4270620963       -1.4442522140       -5.0083360923
 H         7.6408593724        0.1165749939       -4.1742084964
 H         6.0255234050       -0.4602947527       -4.6101172255
 H         8.6167767210       -2.4700314033       -1.7200816210
 H         9.0809136318       -1.9355940403       -3.3877782740
 H         8.9167525047       -0.8271691894       -1.8826948454
 H         5.5312289320       -5.7193365711       -4.4527426342
 H         5.3203459727       -4.9151796794       -2.8871761339
 H         1.4223706857       -5.8387735684       -5.7237401430
 H         0.4315148709       -7.1745202337       -5.1879909115
 H        -0.2043349581       -5.5423847620       -5.0933641215
 H         3.0208906217       -7.8673815429       -4.4530937267
 H         2.9250794304       -8.0934130840       -2.7493130715
 H         4.2980050656       -7.2235606340       -3.3895539331
 H         3.9652835306       -5.3859855575       -1.5775220201
 H         2.5784315372       -4.5309531944       -1.6068399872
 H         2.4785514018       -6.1453398631       -0.9670300254
 Na       -3.6006389280        1.0269322777        0.0756336753
