155

 C         0.9359032116       -0.1486233640       -1.3705229231
 C        -0.4963811781       -0.3678986574       -1.1063784964
 C        -1.1136074885       -1.6949376737       -1.6900410368
 C        -2.7083893826       -1.7298929383       -1.3723213882
 C        -3.2022976892       -2.7796711007       -0.4019958629
 C        -0.9506547741       -1.7564078915       -3.1831369109
 C        -0.3286876639       -2.8675158538       -1.1492086447
 O        -1.1418684842        0.3162731277       -0.2792497650
 O        -3.4343613625       -0.8935178616       -1.9277422872
 C        -4.5640374745       -2.5440448951        0.1237297459
 C        -4.5489424647       -1.5516477104        1.2801277426
 C        -5.5678086429       -1.9764446846        2.5389307692
 C        -7.0652136436       -1.8889014109        1.9395325134
 C        -7.9599514463       -0.6761478802        2.2664136511
 O        -3.7857559372       -0.6262092696        1.4508012332
 O        -7.4723757545       -2.8708766435        1.3270353349
 C        -5.2713945660       -3.5076790969        2.9555314947
 C        -5.2129594290       -0.8597992754        3.6354201496
 C        -8.5218009485       -0.0113185025        1.0355958580
 C        -7.4086773348        0.2238869549        0.0300399144
 C        -7.8036909999        1.0241638899       -1.3814821895
 C        -7.8855335430        2.5266057637       -0.9408575845
 C        -7.3828787605        3.6990177395       -1.7475871739
 C        -6.6628666733        0.5986376452       -2.3610444318
 C        -9.2104381349        0.6662678089       -2.0170585948
 O        -6.2369849669       -0.1126432240        0.2486892109
 O        -8.4527038358        2.6973076343        0.1006262548
 C        -6.2024277472        4.5921578555       -1.1396356770
 C        -4.7943633982        3.9482229903       -0.9861182703
 C        -3.6354984093        4.9916582890       -0.6710370580
 C        -2.3921543391        4.1351800103        0.2171915997
 C        -1.0522245030        4.7887644497        0.6341524587
 O        -4.6728245319        2.7847929541       -1.2969881415
 O        -2.5173741186        2.9709008272        0.3435933617
 C        -2.7669923480        5.2067211514       -1.9233403504
 C        -3.9276088400        6.3765304740        0.0250949635
 C        -1.1121794097        4.7741855022        2.1971567201
 C         0.2143804201        5.4206862132        2.7132035177
 C         0.6710547242        4.8788776977        4.1680946618
 C         1.9008804369        3.9264198371        3.8942035135
 C         3.0984904406        4.4688841784        3.0677309964
 C         1.1494339539        6.0619326758        5.0451261690
 C        -0.5387835049        4.1813052938        4.9021161610
 O         0.7549305447        6.2514622913        2.0364609688
 O         1.7657926354        2.7398581529        4.2409501538
 C         4.3714852690        3.6228935899        3.2068851609
 C         4.2790122322        2.2806286787        2.3433772733
 C         4.9825961299        0.9667807989        2.9202503024
 C         4.8223651444       -0.1642955300        1.9464857635
 C         5.6802569469       -0.0925113440        0.6606610927
 O         3.7892666529        2.2173605092        1.2518875376
 O         3.9469699377       -0.9912853443        2.0434995008
 C         6.3849873751        1.2285967210        3.3986133039
 C         4.1379495285        0.5646568641        4.1326346266
 C         5.3854662612       -1.1135683850       -0.5301063472
 C         5.7198948700       -0.5221779679       -1.8761883148
 C         6.7423155140       -1.3650499656       -2.8054811208
 C         6.2792172113       -2.8435904872       -2.8519775127
 C         5.7207482947       -3.4300706417       -4.1820477949
 C         6.7788423210       -0.6823369997       -4.2258320421
 C         8.0714284033       -1.3595480750       -2.0505498698
 O         5.1553335024        0.4350683797       -2.3842532869
 O         6.4777044873       -3.5838531787       -1.9333977866
 C         5.2760266479       -4.9336945621       -4.0124245775
 C         3.8378244912       -5.1572804861       -4.0737326147
 C         3.0751778581       -6.2208391855       -3.1104545484
 C         1.6025751079       -6.3213684767       -3.5841455137
 C         1.1050014935       -7.2060036071       -4.7108068636
 O         3.1778807032       -4.4412805747       -4.7521123958
 O         0.7438051578       -5.7454858066       -2.9031587419
 C         3.8668225677       -7.5500106471       -3.0954354166
 C         3.1158170088       -5.6669000878       -1.6506990009
 H         1.5860566865        0.0869982073       -0.5053314647
 H         1.5108425375       -0.9894605757       -1.9572297996
 H         0.9819869062        0.7149008592       -2.0463031714
 H        -3.1472607166       -3.7285775557       -1.0016408345
 H        -2.4783898544       -2.9301731577        0.3907662000
 H        -1.1127511503       -0.8419818041       -3.6843376414
 H        -1.6258135392       -2.5128303507       -3.5891822680
 H        -0.0944796540       -2.3615528658       -3.4421292011
 H        -0.5144786690       -3.0453748009       -0.1465182106
 H        -0.6797476932       -3.7075962292       -1.8198172084
 H         0.7862172421       -2.9333986040       -1.3348380150
 H        -5.0895503835       -2.0387528662       -0.6820206535
 H        -5.1694942832       -3.4483811117        0.3893597164
 H        -8.7692517093       -1.0870094890        2.8283411148
 H        -7.4772207209        0.0528783775        2.9356015008
 H        -5.2751519663       -3.4830703201        4.0887690265
 H        -4.3311116974       -3.9644555208        2.8085348019
 H        -6.1420987235       -4.1649820046        2.8761228076
 H        -5.8423228710       -0.6860654566        4.5349292932
 H        -4.1374999694       -1.0844674799        3.9560761208
 H        -5.1017103885        0.1618643785        3.1857511447
 H        -9.0572395887        0.9063671196        1.2359584467
 H        -9.1793776455       -0.6297432708        0.4538275069
 H        -7.1101335495        3.3350919898       -2.8056753667
 H        -8.2580951455        4.3059905565       -1.9586932219
 H        -5.7021189783        0.6799888350       -1.8168835959
 H        -6.7016576160        1.3354299849       -3.0748709554
 H        -6.7296438069       -0.4136567215       -2.6748925680
 H        -9.9281532407        0.4383249066       -1.2617656275
 H        -9.6682543380        1.5187166184       -2.4478479454
 H        -9.1208689673       -0.1614697221       -2.8304128506
 H        -6.1683443900        5.4968062847       -1.7519418759
 H        -6.5352872346        4.9355733567       -0.1814468693
 H        -0.2142982560        4.1658488327        0.3269053208
 H        -0.8626755961        5.7907334622        0.2746540573
 H        -2.5709357633        4.2393576342       -2.3632115027
 H        -1.9199314927        5.7657652572       -1.5536692535
 H        -3.2165627535        5.7729481013       -2.6625210717
 H        -3.0696583751        6.9940385277        0.2164257862
 H        -4.5760668904        7.0573991427       -0.5477186234
 H        -4.3777776294        5.9984673450        0.9381263422
 H        -1.2365284849        3.6978088883        2.2894088132
 H        -1.9905216718        5.3179273213        2.5703155263
 H         2.6758396778        4.3369114272        2.0347263477
 H         3.2446117141        5.4904153359        3.2008804042
 H         1.7924454332        6.5932339484        4.3639193490
 H         1.6418199340        5.7415656955        5.9179092713
 H         0.3091910985        6.7138388965        5.3692530866
 H        -1.3095847918        4.9507822817        5.1715852458
 H        -0.8813246665        3.3092626620        4.3415035065
 H        -0.3366317469        3.7115180615        5.8530039366
 H         5.1032806788        4.1394220862        2.5574668887
 H         4.6687221890        3.6328952791        4.2517623307
 H         5.4562710905        0.8401545761        0.2169161577
 H         6.7415255548       -0.1929821713        0.8822010504
 H         6.4845413830        2.0658389662        4.1936917126
 H         7.2339880425        1.5098801320        2.6399755869
 H         6.8066876466        0.3441932327        3.9352282893
 H         3.1341690308        0.5114028773        3.9097558870
 H         4.4912455533       -0.3740707315        4.4404189932
 H         4.2890737812        1.3260226801        4.8902513865
 H         4.3514332078       -1.3850395236       -0.5818098630
 H         5.9549076186       -2.0456066662       -0.4318071556
 H         4.8302832866       -2.9378811443       -4.5672991519
 H         6.4869519922       -3.2676038831       -4.9363973934
 H         7.4579279811       -1.1647302253       -4.9258219767
 H         7.1628350425        0.3369630430       -4.0551819218
 H         5.7726050140       -0.5970083074       -4.6033743242
 H         8.1570558476       -2.0413430186       -1.1929241063
 H         8.8215529552       -1.6817867483       -2.7277852293
 H         8.1844774505       -0.3364137655       -1.6717814996
 H         5.6725290086       -5.4768439874       -4.7892461884
 H         5.8243384483       -5.3489672776       -3.0934154526
 H         0.9032586428       -6.6495849436       -5.6677168664
 H         1.9418282578       -7.8887781731       -5.0343408748
 H         0.1408248761       -7.6352120522       -4.4967594589
 H         3.7572996592       -7.9860214620       -4.0958556950
 H         3.5773431304       -8.3370755471       -2.3851602296
 H         4.9650097830       -7.5931572833       -2.8350759968
 H         4.0289469671       -5.9265452831       -1.1035010636
 H         3.0147641991       -4.5695695416       -1.5333514226
 H         2.3627092100       -6.0978346824       -1.0599554836
 Na       -3.4711456427        0.8204235811       -0.2119964236
