155

 C         1.1077964611        0.1304032261       -1.1519110116
 C        -0.4078461541       -0.1613211969       -1.0465963799
 C        -0.9194621126       -1.5386102584       -1.7182747113
 C        -2.4618385282       -1.7344793453       -1.3524946564
 C        -2.9235599529       -2.8201530944       -0.4575280904
 C        -0.8503395437       -1.4068682458       -3.2729179601
 C         0.0939993595       -2.7870149798       -1.4775267841
 O        -1.2259629816        0.5981991970       -0.5299659760
 O        -3.2197070089       -0.8598188610       -1.8040285757
 C        -4.3604932245       -2.6106004391        0.1888196378
 C        -4.4515121432       -1.6562933691        1.4414392817
 C        -5.4871227472       -2.1822763545        2.5192516939
 C        -6.8313741434       -1.8957767479        1.7518442929
 C        -7.7649964108       -0.6822991032        2.0201686535
 O        -3.8294067721       -0.6303032128        1.6148874206
 O        -7.2608604208       -2.6926484767        0.9545318724
 C        -5.2863799351       -3.5811002534        2.9343010302
 C        -5.3514170550       -1.2704886373        3.8467743055
 C        -8.3710807948       -0.2783240274        0.6588751765
 C        -7.3586795019        0.3408388642       -0.2898190579
 C        -7.7658815329        1.0254823677       -1.5545727932
 C        -7.7283462400        2.6339955941       -1.1020313333
 C        -7.1629689576        3.6610144805       -2.0985104928
 C        -6.8918775574        0.6069736951       -2.8078607153
 C        -9.3535119212        0.9559727416       -1.8381570516
 O        -6.1148752575        0.2758454477       -0.0793129965
 O        -8.1618854871        2.9262740175       -0.0173386672
 C        -6.0988892872        4.4412308085       -1.3448355444
 C        -4.7175557199        3.8048095306       -1.2846639030
 C        -3.6016680307        4.7956660639       -0.6444463090
 C        -2.5143311927        3.9576262454        0.1616059599
 C        -1.1917860366        4.5311294465        0.6941008773
 O        -4.3954075653        2.7465728260       -1.7890560938
 O        -2.7729711912        2.8196559020        0.5144559754
 C        -3.0149345000        5.6237802964       -1.8252472145
 C        -4.3417027653        5.7748985197        0.3460365461
 C        -1.1804694256        4.5879796056        2.2489273704
 C         0.0304452530        5.2305426662        2.8209529421
 C         0.5556960759        4.8799587751        4.3727857311
 C         1.8530825489        3.8998949531        4.2078560252
 C         3.0687834159        4.5009956119        3.5118511992
 C         0.8329097910        6.2650135644        5.0149986873
 C        -0.5263041460        4.1780259613        5.1266250220
 O         0.7245105338        5.9760983870        2.1906140399
 O         1.7835574083        2.8421137301        4.7948654944
 C         4.2415890214        3.5146509697        3.6486036397
 C         4.0910738636        2.4062798206        2.6547910319
 C         4.8672747846        1.0469646222        2.9500464787
 C         4.4147110962        0.0170723558        1.7753641047
 C         5.3922641529       -0.0206752385        0.5702938701
 O         3.3941089470        2.6231869177        1.6764275709
 O         3.5516129424       -0.7774230101        1.8029619713
 C         6.3910089202        1.3998528268        2.9552835197
 C         4.4150517622        0.2881547199        4.2795579251
 C         5.1653494077       -1.1300552124       -0.5132230189
 C         5.4008853926       -0.5877629293       -1.9967740738
 C         6.5945642660       -1.4406619089       -2.7501666444
 C         6.3145489127       -2.9800888329       -2.8184674984
 C         5.9040173653       -3.5873054639       -4.1399197056
 C         6.7353287321       -0.8183262089       -4.1834743569
 C         7.8424482616       -1.1528003846       -1.8952580717
 O         4.8555414304        0.3358510225       -2.5097776265
 O         6.2778230457       -3.6302719837       -1.8102882462
 C         5.3921873115       -5.0046407491       -4.0574601180
 C         3.9230753098       -5.1264098329       -3.9811412787
 C         3.3607412045       -6.2290704802       -2.9768577057
 C         1.8627639630       -6.4966571448       -3.5192788664
 C         1.5299108023       -7.6330549536       -4.4748599200
 O         3.1930025377       -4.3129452496       -4.5155749535
 O         0.9896317918       -5.7839511793       -3.1110896462
 C         4.1962043635       -7.5688149733       -3.0342883570
 C         3.4054368421       -5.6093293663       -1.5356171837
 H         1.6271703870       -0.5592530437       -1.9029666145
 H         1.3164735252        1.1640992846       -1.3456255554
 H         1.6795188542        0.0145089830       -0.2317459827
 H        -2.8748115408       -3.8509680869       -0.9038426298
 H        -2.1437309711       -2.8116502574        0.2790243916
 H        -1.7786565346       -0.8808061566       -3.6714556544
 H        -0.7556685871       -2.3965873761       -3.8084232891
 H         0.0583077841       -0.8238384508       -3.4702389927
 H         0.3290334857       -2.8911063244       -0.4376420999
 H        -0.3542353515       -3.7921985153       -1.8153052476
 H         1.0765028121       -2.5902812162       -1.9513483506
 H        -4.9507431161       -2.0384224910       -0.5524497890
 H        -4.7714560913       -3.6572849229        0.3624451303
 H        -8.6308466492       -1.1179491396        2.5581951930
 H        -7.3192074291        0.1408444029        2.5863121344
 H        -4.2833235333       -3.8261800212        3.1545186650
 H        -5.7209291798       -4.3412929890        2.3232754336
 H        -5.8489880970       -3.7367552696        3.8511074138
 H        -6.0705376512       -1.2676851190        4.5718552318
 H        -4.4121045845       -1.2302993584        4.3385113490
 H        -5.4303933754       -0.2806239285        3.3580980716
 H        -9.1614130200        0.4387861330        0.5992960821
 H        -8.7249120002       -1.1625347153        0.1714280400
 H        -6.8554405135        3.1804964182       -3.0071829791
 H        -7.9821816552        4.3499242919       -2.5033719673
 H        -6.0299737752        1.2402400796       -2.8751804310
 H        -7.5835164971        0.6955391744       -3.7011802488
 H        -6.5573324637       -0.3888107335       -2.7318220074
 H        -9.8491208538        1.6029610512       -1.1620166181
 H        -9.7051291076        1.0821618091       -2.8483515248
 H        -9.5366741719       -0.1130285618       -1.5890882155
 H        -6.1378758259        5.5154014049       -1.6063713274
 H        -6.4669672509        4.4997550974       -0.3100638621
 H        -0.3863949651        3.8908549289        0.3309361177
 H        -0.8548317494        5.5261578324        0.4669588324
 H        -2.4632969930        4.8749950700       -2.4243880255
 H        -2.2579155347        6.2738710760       -1.3444660554
 H        -3.6601925946        6.2189017676       -2.4014249898
 H        -3.6419985544        6.5596430591        0.6209136758
 H        -5.1971440957        6.2723357829       -0.2059600776
 H        -4.7161531508        5.3093335452        1.2491624405
 H        -1.2840784999        3.5527361543        2.7152353537
 H        -2.1807038650        5.0313390888        2.6029579335
 H         2.9361492324        4.6423420003        2.3795632992
 H         3.1900314928        5.5182968409        3.8905356150
 H         1.4693996496        6.8866120933        4.3518862299
 H         1.3073037372        6.1197540257        5.9274178679
 H        -0.1337911148        6.7810529578        5.1767033106
 H        -1.5949959332        4.5875348713        4.8955274482
 H        -0.6656042836        3.1029164281        4.9232629564
 H        -0.4470977655        4.2561995934        6.2162969450
 H         5.1034690870        4.1415948350        3.3747035209
 H         4.4482172967        3.1861016155        4.6680946734
 H         5.5054780573        0.9597896973        0.1522097522
 H         6.3759633611       -0.2205706810        1.0300179617
 H         6.6409739039        2.0028824141        3.8630105665
 H         6.8098539681        2.1035920299        2.1994810907
 H         7.0230019029        0.4765902540        2.9168180406
 H         3.4288533733       -0.1721418369        4.1229547184
 H         5.0601953124       -0.5546036421        4.4599247674
 H         4.4689683537        0.9440282874        5.1551297374
 H         4.1254772771       -1.4341018965       -0.4227121926
 H         5.9244888014       -1.9797753707       -0.3480176180
 H         5.1150643270       -2.9744420909       -4.5305156940
 H         6.6661142169       -3.5181215291       -4.8991614332
 H         7.3664401244       -1.3794215085       -4.8447269723
 H         7.1131704974        0.1880408867       -4.1513830510
 H         5.7293965537       -0.7806380072       -4.5591550537
 H         7.5922259858       -1.5159855547       -0.8880947462
 H         8.7064013936       -1.7273767906       -2.2410499215
 H         8.2563042110       -0.1197703567       -1.9631267249
 H         5.7952209139       -5.3993988269       -4.8858360654
 H         5.9652994993       -5.5062587737       -3.2239557543
 H         0.9983327195       -7.2411381486       -5.3141082202
 H         2.4646365781       -8.0603256566       -4.8930420383
 H         0.9008799341       -8.4361116922       -4.0811335089
 H         4.8298793102       -7.6753658884       -3.9397834118
 H         3.6069965199       -8.4689853327       -2.9087378420
 H         5.0223656986       -7.6169999030       -2.2595198908
 H         4.2521004277       -4.9129012782       -1.5778345683
 H         2.5636566035       -5.1118610843       -1.0841824667
 H         3.7209829245       -6.2861177877       -0.8163478977
 Na       -3.9684715153        0.8658293438       -0.4515558874
