155

 C         0.9744341399        0.2798749758       -0.4674514598
 C        -0.4198610941        0.0823141627       -1.0643517135
 C        -0.6979663383       -1.2285925581       -1.9899142322
 C        -2.1117907460       -1.6499241145       -1.4889474735
 C        -2.2313804011       -2.5620731141       -0.2716115026
 C        -0.8512817949       -0.6704156004       -3.4885727651
 C         0.4984670995       -2.2159545655       -1.8708697583
 O        -1.2366050058        1.0249496183       -0.9050728068
 O        -3.1317458801       -1.1261734935       -1.9608104425
 C        -3.6804266410       -2.7216338491        0.2636498314
 C        -4.1938508221       -1.7699537960        1.3611626802
 C        -5.2779321979       -2.2708909079        2.3723925426
 C        -6.5891957221       -2.0035401352        1.5622909001
 C        -7.3024627588       -0.6311506979        1.6527973116
 O        -3.9815191265       -0.5612971325        1.3123807152
 O        -7.0191050900       -2.8983020818        0.8410239816
 C        -5.3763360896       -3.8526642424        2.7157575845
 C        -5.2384695353       -1.4999317094        3.6153064095
 C        -8.1210216088       -0.2405012304        0.4079027257
 C        -7.1672558788        0.2818727873       -0.6601141458
 C        -7.7329807207        1.0761704347       -1.8918118164
 C        -7.3868547645        2.7028183222       -1.6446291919
 C        -6.6787600958        3.5151333685       -2.7698239496
 C        -7.1695250624        0.4617485670       -3.2994118117
 C        -9.3129606182        1.2761208144       -1.8904351211
 O        -5.9720961823        0.0934383940       -0.5932851823
 O        -7.7977489518        3.2530545814       -0.6536163653
 C        -5.7300516624        4.5581187453       -2.1007772809
 C        -4.6915946095        3.7528324820       -1.2386255759
 C        -3.7815820611        4.7156675658       -0.3172280490
 C        -2.9401887611        3.8582472218        0.7298261478
 C        -1.5575300876        4.3048512415        1.0597692631
 O        -4.4795230439        2.6177459727       -1.5421803196
 O        -3.4408612990        2.7884787903        1.0128269639
 C        -3.0110022905        5.5472498252       -1.2756153861
 C        -4.6719524495        5.6473759056        0.5944421567
 C        -1.0434750365        3.6551050542        2.3570046135
 C         0.0562866034        4.6339233592        3.0014003230
 C         0.3338367271        4.7635653037        4.5138688288
 C         1.6084469464        3.9480060151        4.7805377930
 C         2.9155377668        4.5971301259        4.1995892341
 C         0.7748784198        6.2813520145        4.8091362617
 C        -0.8527654141        4.3853985701        5.4845505511
 O         0.6967290938        5.3038877910        2.2164532808
 O         1.6013537574        2.8414262384        5.3041774949
 C         3.9736620298        3.4541495197        4.0940944502
 C         3.7523723942        2.4286487067        2.9817669817
 C         4.6211813026        1.1629187045        2.8137100142
 C         4.0957563979        0.3634272006        1.5109043492
 C         4.8203705509        0.5650868362        0.0699977169
 O         2.8158977997        2.5947667797        2.2563938003
 O         3.1829209092       -0.3807166742        1.7259852230
 C         6.0663545487        1.6810786371        2.7002114922
 C         4.4650141478        0.2542496292        4.0217342050
 C         4.7267445327       -0.8025895917       -0.6761541713
 C         5.0046330107       -0.7680779888       -2.1943442141
 C         6.3894736088       -1.2851459924       -2.7069704472
 C         6.1337934429       -2.8671428002       -2.7941208082
 C         6.1797924274       -3.5820157944       -4.1522039201
 C         7.0318428302       -0.7319745855       -4.0191339429
 C         7.4450452732       -1.1026441007       -1.5903185860
 O         4.1233751247       -0.3019204286       -2.8525106672
 O         5.7731554150       -3.4463659423       -1.8297764376
 C         5.7071801667       -5.1247595293       -4.0714349762
 C         4.2138055461       -5.1394446100       -3.7281289593
 C         3.6643516698       -6.3541939598       -2.7572936530
 C         2.2438714079       -6.6665727088       -3.2003429908
 C         1.9396400318       -7.5612706552       -4.4373821966
 O         3.4655073084       -4.3330720646       -4.1326497490
 O         1.3154626355       -6.0790908715       -2.6407921270
 C         4.5449927047       -7.6399811384       -2.8230313576
 C         3.5597942056       -5.6998956366       -1.2915340786
 H         1.0401801609        1.3941848432       -0.2186941687
 H         0.9001128797       -0.2051614293        0.5837471098
 H         1.9406647642        0.0784921071       -0.9511150107
 H        -1.8614979651       -3.5082836648       -0.5555824509
 H        -1.4610909383       -2.2415379788        0.4985297252
 H        -1.5688201601        0.0941275946       -3.5765896293
 H        -1.0989220315       -1.4774454507       -4.1984368606
 H         0.0612830274       -0.0298100788       -3.6076788769
 H         0.7189961092       -2.5466701747       -0.8986211430
 H         0.3090375061       -3.0906428035       -2.5398245812
 H         1.3052919658       -1.5930322149       -2.4144285481
 H        -4.3711295661       -2.4232197745       -0.5474611436
 H        -3.7338773253       -3.7212764879        0.5723885006
 H        -8.0432845818       -0.8144013792        2.3677844405
 H        -6.7015459956        0.2076121843        2.0460102371
 H        -6.1749085786       -4.2422009066        2.0333750400
 H        -5.6001462436       -3.9241059484        3.7392617654
 H        -4.6131644912       -4.5989377039        2.5937178596
 H        -5.9695397659       -1.6970402762        4.3985513507
 H        -4.2531824066       -1.6718282214        4.1383595713
 H        -5.2000329856       -0.3916873581        3.4065674869
 H        -8.7947879288        0.5739825540        0.5974550150
 H        -8.7105981154       -1.0187069279       -0.0797485178
 H        -6.0147240050        2.8204350130       -3.4276878260
 H        -7.4515698413        3.8876004465       -3.3247157922
 H        -6.4735463718       -0.4112335065       -3.2014250255
 H        -6.7180959241        1.1080562605       -3.9859883217
 H        -8.0826119425        0.1571210095       -3.8066233524
 H        -9.5731725300        2.0452333299       -1.1919335107
 H        -9.5423525696        1.5696606743       -2.8692108809
 H        -9.8832292477        0.3770407719       -1.5208555858
 H        -5.2706947461        5.2688024084       -2.7613942408
 H        -6.3578209729        5.2016858230       -1.4689597603
 H        -0.9474949345        3.9545454387        0.2033427283
 H        -1.3449225672        5.3929317203        1.1099394897
 H        -2.3306716027        4.9724347160       -1.8817924019
 H        -2.3448389939        6.1800126231       -0.7651395976
 H        -3.6969193210        6.1707633374       -1.8358692555
 H        -4.0098606694        6.1435981283        1.3244613917
 H        -5.2149170003        6.4365148243        0.0989176056
 H        -5.4360307767        5.0949915653        1.2125849299
 H        -0.6052358900        2.6872227802        2.1991614589
 H        -1.8974405221        3.3099186202        2.8793455414
 H         2.7506548498        5.0619773056        3.2613893480
 H         3.1870973204        5.3623299633        4.8962278397
 H         1.4446861965        6.6046367971        4.0764714141
 H         1.3017704201        6.3718630452        5.7927643065
 H        -0.1034093119        6.9154596727        4.8355524099
 H        -1.8354120794        4.7789028458        5.3146279361
 H        -1.1674213872        3.3117464004        5.6227763387
 H        -0.4672012090        4.7679454377        6.4612271483
 H         4.9455442800        3.9477178130        3.8590700523
 H         4.2181445394        3.1672032552        5.1090715445
 H         4.3461096922        1.3382339710       -0.4941910367
 H         5.8072370682        1.0396548368        0.1323823584
 H         6.4533701227        1.8879854836        3.7596014026
 H         6.2021187210        2.5496992789        1.9269674270
 H         6.7552902984        0.8549810307        2.3873528183
 H         3.5242091532       -0.1380113549        4.1126125151
 H         5.1713870820       -0.5422213810        3.9254012569
 H         4.7441840355        0.8578278846        4.8953064833
 H         3.7365601520       -1.1840165944       -0.6158125447
 H         5.2735411514       -1.5485691048       -0.1908105878
 H         5.4201520268       -3.0760593926       -4.7786807687
 H         7.1046966861       -3.4413164524       -4.6638536434
 H         7.7213744631       -1.4341164119       -4.4516868741
 H         7.5331725505        0.2183450393       -3.8650349625
 H         6.2875632957       -0.6056726169       -4.7550722170
 H         7.3452519587       -1.8555793406       -0.7478783704
 H         8.4293786964       -1.2165290175       -2.0374746265
 H         7.3978986327       -0.0692593006       -1.2194897491
 H         5.8839190972       -5.5535697942       -5.1279874763
 H         6.3570469013       -5.6729231166       -3.3970979551
 H         1.0123776477       -8.1928609201       -4.2625774867
 H         1.8368939481       -7.0100435193       -5.3973994761
 H         2.8113616869       -8.1416846342       -4.6460935446
 H         4.9589613029       -7.8122334506       -3.8333985025
 H         4.0064192560       -8.6337242126       -2.5867655466
 H         5.3844329210       -7.4313958634       -2.0868262419
 H         4.4636943296       -5.7036938573       -0.7342787333
 H         3.3173568226       -4.6592594580       -1.4801176944
 H         2.7585426118       -6.1073620180       -0.6769125174
 Na       -3.8118664674        0.7768755831       -0.5225187802
