155

 C         0.8434000332        0.4488137011       -0.3398533888
 C        -0.4477103596        0.2835691866       -1.0544372706
 C        -0.6341276149       -0.9648613110       -2.1073215841
 C        -1.9939226024       -1.5335802967       -1.4915685374
 C        -2.0017884235       -2.4774698322       -0.2533709015
 C        -0.8746419584       -0.5237608215       -3.5486208284
 C         0.4996842766       -2.0036631677       -1.9975496682
 O        -1.3788760301        0.9029816688       -0.6895539197
 O        -3.0043035845       -1.0755328989       -1.9361937643
 C        -3.4504232404       -2.8231152943        0.2189140658
 C        -4.0929056595       -1.8324818546        1.2572612812
 C        -5.2540241717       -2.2974626171        2.1937512930
 C        -6.6534084309       -1.9649740199        1.4505424870
 C        -7.1951316879       -0.5284077851        1.5729251540
 O        -3.6434678292       -0.7228971534        1.4370580996
 O        -7.2296640751       -2.7854457140        0.7690189510
 C        -5.0933903323       -3.8042037210        2.5464655390
 C        -5.1320819231       -1.5273352136        3.5123929393
 C        -8.0658819128       -0.0863113030        0.4357910919
 C        -7.2207092672        0.3948264807       -0.8560378450
 C        -7.8161200769        1.0508768159       -2.1181302244
 C        -7.3447440118        2.7210699527       -1.8639012340
 C        -6.5755006178        3.4872496043       -3.0850158239
 C        -7.2217571913        0.3678027326       -3.3998457759
 C        -9.3723004518        1.0667785419       -2.0229490632
 O        -6.0789250975        0.0224269912       -0.9019212449
 O        -7.4586495720        3.2199778954       -0.7688984260
 C        -5.6822458671        4.5466554014       -2.3422718858
 C        -4.6186856206        3.8622792746       -1.3703294081
 C        -3.8245543279        4.6827206355       -0.1591086570
 C        -3.0898547787        3.6556302131        0.8132703340
 C        -1.7741611418        4.2751963682        1.2592368357
 O        -4.4973050356        2.6636562295       -1.3902997432
 O        -3.5862179552        2.6353508571        1.2679435061
 C        -2.7844975332        5.5594665318       -1.0158742536
 C        -4.7262106075        5.5318815337        0.6732576183
 C        -1.1092291059        3.6908885724        2.5473615799
 C         0.0011626824        4.6339986425        2.9693057370
 C         0.3175834705        4.8667516625        4.5289277100
 C         1.6218861556        3.8644410715        4.8771919959
 C         2.9517854444        4.4105152883        4.5038302094
 C         0.4471445467        6.3163542291        4.7957057923
 C        -0.8006590369        4.2485103069        5.3180452156
 O         0.7420498684        5.1859986481        2.1440950664
 O         1.4753446680        2.8295939219        5.4871612531
 C         3.9853428306        3.3675485184        4.0872366616
 C         3.5661351759        2.3930069027        3.0174669835
 C         4.5530924090        1.1613786283        2.6949713264
 C         4.0614641190        0.4148104568        1.4342574196
 C         4.6190761839        0.6766945583        0.0415702921
 O         2.5676758028        2.6376422037        2.3666694530
 O         3.0698975210       -0.3186446944        1.6308300778
 C         5.9406530099        1.6793907148        2.5308761221
 C         4.4928353681        0.2410125202        3.8945425212
 C         4.4872100511       -0.6235141154       -0.7554977717
 C         4.8894405427       -0.8184630019       -2.2021688927
 C         6.2358405269       -1.3482986669       -2.5166141892
 C         6.1138259522       -2.8799984470       -2.6453157123
 C         6.0847017437       -3.5002006443       -4.0122490299
 C         6.5693878167       -0.7469677031       -3.8957983784
 C         7.4803272744       -1.1478721249       -1.5721309417
 O         4.2313016880       -0.3187180880       -3.1150681706
 O         5.7140275887       -3.5544761447       -1.6515725862
 C         5.7754540636       -5.0173335906       -3.9306674314
 C         4.2552828192       -5.1838245833       -3.5768315282
 C         3.7889919435       -6.3184165451       -2.6607756378
 C         2.2615556510       -6.5887600355       -3.1709839703
 C         2.1289107523       -7.2832195968       -4.5059887249
 O         3.4099595133       -4.4057363498       -4.0873883607
 O         1.3573955987       -6.1960596279       -2.4907989604
 C         4.7542756829       -7.5728309745       -2.7268454822
 C         3.8441600696       -5.8228748657       -1.2033077311
 H         0.8538551134        0.8629068489        0.5913125095
 H         1.4142204334       -0.4609214144       -0.2609768852
 H         1.3873905524        1.1417652164       -0.9434175106
 H        -1.6012637255       -3.5267514845       -0.4847874216
 H        -1.3247522184       -2.1274158372        0.4799619928
 H        -1.8670958876       -0.0589430351       -3.7221984114
 H        -0.7305801213       -1.3883943178       -4.1854470814
 H        -0.1792711457        0.2425739952       -3.7709496512
 H         0.6328726145       -2.1126598437       -0.8789637678
 H         0.3170990258       -2.8975548691       -2.4984608824
 H         1.3202138014       -1.5902267594       -2.4447203189
 H        -4.1874717177       -2.8502803638       -0.5724223077
 H        -3.2353902378       -3.8291207762        0.6948234213
 H        -7.7777387717       -0.3614646825        2.5606081171
 H        -6.2818999784        0.0351535320        1.6820976302
 H        -5.8320909411       -4.5177444546        2.1915214002
 H        -4.8019903510       -3.9559303232        3.6521630150
 H        -4.1681736557       -4.1436932525        2.0468495690
 H        -6.1758491653       -1.5042907395        3.9924054009
 H        -4.4471608685       -1.8159865502        4.3077838317
 H        -4.9146777923       -0.4991358935        3.3440801248
 H        -8.8648032781        0.6908663371        0.6116955827
 H        -8.5660698415       -1.0379351333        0.1106304050
 H        -5.8435582074        2.8364615522       -3.4276327841
 H        -7.1823657959        4.0150926315       -3.9476084579
 H        -6.7859535080       -0.6146315322       -3.1592368134
 H        -6.4566724143        0.9424941850       -3.8958034053
 H        -8.0083855790        0.1450061064       -4.1860503996
 H        -9.7573350371        1.5730702174       -1.1051788434
 H        -9.7109013820        1.6158695167       -2.9581806050
 H        -9.7136690567        0.0772591923       -2.0349059918
 H        -5.1034480832        5.0081035204       -3.1869002095
 H        -6.2023016813        5.3812317995       -1.8921749229
 H        -0.9362463319        4.3084268641        0.5746117797
 H        -1.9217528718        5.3296561212        1.4843768126
 H        -2.0651223132        5.0323935895       -1.6355676289
 H        -2.1739105702        6.1937780857       -0.3517710952
 H        -3.3378712482        6.2370206049       -1.6869225962
 H        -4.5538080388        6.6216970443        0.5653031585
 H        -5.8048093038        5.4361522264        0.4867203053
 H        -4.6317549359        5.3067713349        1.7015642779
 H        -0.7887486743        2.6430435053        2.4162128485
 H        -1.9597489236        3.6102630159        3.2962208495
 H         2.8432126709        5.1428977194        3.6756182315
 H         3.2248084887        4.9730132873        5.4448077709
 H         1.0230714911        6.8750486619        4.0118187765
 H         0.9626264756        6.4170397592        5.7344411185
 H        -0.5158143030        6.7715771830        4.9951821634
 H        -1.8190437869        4.5248390938        4.9810459256
 H        -0.7904746013        3.1934224850        5.2112287742
 H        -0.8367580974        4.4004101258        6.3693543370
 H         4.9460248392        3.8265838764        4.1371810916
 H         4.0634064204        2.7393864901        4.9962402260
 H         3.9912547549        1.4766074839       -0.4905375588
 H         5.6020155850        1.1706942424        0.0354840797
 H         6.1671861738        2.1180697820        3.4556404751
 H         5.9798445340        2.3988114936        1.7857160557
 H         6.6846654298        0.9012369355        2.3923644541
 H         3.4950282325       -0.2581438211        3.9649495256
 H         5.3182889864       -0.4753286509        3.8117837157
 H         4.5612497728        0.8341920611        4.7730075412
 H         3.3896926931       -0.9477545355       -0.7558654031
 H         4.7860249920       -1.5333316005       -0.1370315860
 H         5.1574482759       -3.0556348102       -4.4171708229
 H         6.8823551823       -3.1995446195       -4.7636281231
 H         7.5008915592       -1.2106948210       -4.2373795573
 H         6.7538663442        0.3112750605       -3.8229116506
 H         5.8509179859       -0.9295241026       -4.7282181243
 H         7.2500246106       -1.6167538298       -0.6647674253
 H         8.2535214302       -1.8244651862       -1.9696044317
 H         7.7297353270       -0.1153315550       -1.3326268202
 H         5.9394106261       -5.3550717768       -4.9249282147
 H         6.5146636022       -5.5139595253       -3.3021862618
 H         1.3369511809       -8.0067191528       -4.4263135793
 H         1.8698681918       -6.5750233291       -5.2694316728
 H         3.0973898678       -7.6773427723       -4.9096301094
 H         4.8132206044       -8.0289818628       -3.7645313053
 H         4.3935387989       -8.3213398982       -2.0530519878
 H         5.6952185612       -7.2822234571       -2.3271965088
 H         4.7900754419       -5.2594126392       -1.1108040713
 H         3.0363677909       -5.1494958824       -0.9143325911
 H         4.0067875903       -6.6599370165       -0.4995563206
 Na       -3.5824691111        0.6513691052       -0.4915886324
