155

 C         0.6215129618        1.8228470811       -1.0128122432
 C        -0.5350481288        0.8272459196       -0.8232369687
 C        -0.5443954970       -0.3385717521       -1.8575888481
 C        -1.7260184019       -1.3619908326       -1.3970227450
 C        -1.4223544481       -2.5937183254       -0.5638961984
 C        -0.8948650364        0.2857000057       -3.2914953831
 C         0.8552474400       -0.9462024933       -2.0273064570
 O        -1.3808568263        1.0418561081        0.0387324175
 O        -2.7823034505       -1.0573497795       -1.8422993476
 C        -2.6898177048       -3.2214452748        0.1139836323
 C        -3.4331900047       -2.1873441125        1.0234280441
 C        -4.9347265129       -2.4888546113        1.6751279654
 C        -5.9624024687       -1.5874031637        0.8502854439
 C        -6.1993531067       -0.1352868457        1.1996436038
 O        -3.0458092448       -1.0807162443        1.1681048081
 O        -6.6120890063       -2.1285916359       -0.0558151815
 C        -5.2355068704       -3.8975743256        1.4443932263
 C        -5.0394788550       -2.1467275868        3.2590498305
 C        -7.0619448444        0.6792635079        0.2278772513
 C        -6.6094291127        0.4230403325       -1.2393580168
 C        -7.6542763817        0.8913449478       -2.4291049742
 C        -7.2824773930        2.4190249396       -2.4820759831
 C        -6.1384744902        2.9821644553       -3.4497903152
 C        -7.4005768547        0.2657260179       -3.7520827771
 C        -9.1577872627        0.6528554119       -2.0049277017
 O        -5.4685515334        0.1652195430       -1.5399653289
 O        -7.8971752766        3.2536340452       -1.8980056654
 C        -5.2636776212        4.1573537570       -2.7161637145
 C        -4.3099872525        3.7315472041       -1.6592500924
 C        -4.2905116891        4.5965054573       -0.3274655003
 C        -3.4534268623        3.8516499362        0.7692458973
 C        -2.3158200812        4.5386866920        1.5217816305
 O        -3.4727148293        2.8849256010       -1.8154228228
 O        -3.8382539885        2.7200775676        1.0174161641
 C        -3.7590789547        5.9702936511       -0.7815356478
 C        -5.7876893718        4.6480203817        0.1833297304
 C        -1.9867396721        3.9104006609        2.9091538996
 C        -0.7092346226        4.5225237417        3.5199813108
 C        -0.2397195414        4.3147117242        4.9603423598
 C         1.1752166729        3.5562315878        5.1091435903
 C         2.3496104623        4.1035913577        4.4381146491
 C        -0.1012651929        5.7974170020        5.5374527252
 C        -1.2611310445        3.6362339597        5.8707112463
 O         0.0339255970        5.1896658404        2.8068641354
 O         1.1698689066        2.5850090146        5.8728515855
 C         3.4620394169        3.1001263945        4.2368670492
 C         3.1347611612        2.0936973338        3.0859280149
 C         4.3568152191        1.0293257902        2.7886218748
 C         3.8595826548        0.2046414126        1.5407155756
 C         4.4125732532        0.5559845027        0.2059005815
 O         2.0464982477        2.1299795675        2.5641357549
 O         2.9793773050       -0.6024969132        1.7034922505
 C         5.6959440773        1.7874077507        2.5543848509
 C         4.4740128243        0.0057300969        3.9992368067
 C         4.4028135205       -0.6816849125       -0.7522160668
 C         4.7528864533       -0.3917928040       -2.2780560029
 C         6.2006278440       -0.8051429748       -2.7182769885
 C         6.3077456908       -2.4059566010       -2.4564962391
 C         6.1531235925       -3.4911423951       -3.5745651068
 C         6.3345232056       -0.6004266362       -4.2407208141
 C         7.2852605045       -0.0122845978       -1.9702364944
 O         3.9942988343        0.0814585650       -3.1433040969
 O         6.4912130575       -2.7757477421       -1.2982254176
 C         6.0197985377       -4.9639376729       -3.0740722785
 C         4.4716842990       -5.3875696038       -2.9477398002
 C         3.9739279806       -6.7035499798       -2.3602846825
 C         2.4016740470       -6.9852914262       -2.6378845831
 C         1.7776946614       -6.5074304067       -3.9584294037
 O         3.6295817457       -4.5136736853       -3.2843891578
 O         1.7992529987       -7.6297186229       -1.8275086199
 C         4.6966715162       -7.9157398735       -3.0594682882
 C         4.1332955136       -6.7159556645       -0.8582765689
 H         1.5589733583        1.5439235513       -1.2958079801
 H         0.3126972785        2.6740847625       -1.6329494033
 H         0.7204031257        2.3177151203       -0.1013388969
 H        -0.9893605402       -3.3590976627       -1.1204108535
 H        -0.6317352823       -2.2262184189        0.1751519125
 H        -1.6763987310        1.0897298181       -3.2976697501
 H        -1.4189278576       -0.5088309471       -3.7907791437
 H        -0.0619996636        0.5183916063       -3.8746606243
 H         1.1875644283       -1.2791340078       -1.0008616784
 H         0.8182674382       -1.8740654458       -2.5600527568
 H         1.5293966476       -0.3111248241       -2.4170353469
 H        -3.4807251370       -3.6221843060       -0.6176284932
 H        -2.3520622470       -4.1723371957        0.5902986199
 H        -6.5750137459       -0.0802617763        2.2486783083
 H        -5.2128069842        0.4611782554        1.2754985816
 H        -5.1903587417       -4.1306593970        0.3808994751
 H        -6.2203490503       -4.2303799455        1.8969275885
 H        -4.3974466513       -4.5429378428        1.9111453323
 H        -6.1262032144       -2.3101396651        3.5851680547
 H        -4.4371265281       -2.7080671662        3.9975282193
 H        -4.7387276126       -1.1133889055        3.3419723532
 H        -6.9806886744        1.7639065126        0.3905987309
 H        -8.1556130967        0.3688573848        0.2404966933
 H        -5.4776770696        2.2631092737       -3.7352296507
 H        -6.3531322824        3.5046054657       -4.4576913381
 H        -6.7223118920       -0.5597731980       -3.6150655098
 H        -6.9292924118        0.8926255609       -4.4530639256
 H        -8.3461001295        0.0299351889       -4.2947156071
 H        -9.3735711980        1.2639401604       -1.1165421933
 H        -9.9016426134        0.8125914428       -2.7871776551
 H        -9.2003167968       -0.3854863782       -1.6854594584
 H        -4.6703105601        4.6304054726       -3.4776908702
 H        -6.0012807250        4.9120756374       -2.2605209470
 H        -1.4633863964        4.4387340527        0.8472623097
 H        -2.3422560865        5.6261548263        1.6719296156
 H        -2.8019300561        5.8690897381       -1.2777753254
 H        -3.5939854817        6.7480371290       -0.0170845287
 H        -4.4768758803        6.3230214581       -1.4528591032
 H        -6.0736736454        3.8560800880        0.8595071249
 H        -5.9377227713        5.5490088393        0.8154848789
 H        -6.5751335931        4.6431514209       -0.5187132716
 H        -2.0523675699        2.7621956104        2.7515927173
 H        -2.8940046367        4.2808181751        3.5336709337
 H         1.9260915973        4.5474526644        3.4426160334
 H         2.6796660017        4.9153378049        5.1077150470
 H         0.7674101556        6.4184466759        5.2897998071
 H        -0.1238710900        5.7962625695        6.5594953880
 H        -0.9979444965        6.3423430474        5.1640998422
 H        -2.3364768539        4.0042423619        5.7773700310
 H        -1.3162098597        2.6162387452        5.6239652352
 H        -0.9496249571        3.7983921014        6.8641081374
 H         4.4033708322        3.6841428891        4.1615493414
 H         3.5264059151        2.5089942971        5.1487742176
 H         3.9775030849        1.4694043758       -0.2368498120
 H         5.5558012819        0.7351849614        0.3195912548
 H         5.9562344101        2.1860709726        3.5013837348
 H         5.5720712778        2.4576172957        1.7809360144
 H         6.4986319730        1.0889703449        2.3043299730
 H         3.4715999478       -0.3599226164        4.2641287070
 H         5.0401491700       -0.8594785844        3.7977261442
 H         4.9221141117        0.5302518581        4.7771380554
 H         3.4831524110       -1.2763934598       -0.7210881249
 H         5.3292606914       -1.2317727894       -0.4223243208
 H         5.1881967598       -3.2457463343       -4.1451575807
 H         6.9241244142       -3.5043484390       -4.3394948294
 H         7.1928033446       -1.0883867869       -4.6735889591
 H         6.4804534040        0.4547458673       -4.4644114267
 H         5.4717334870       -0.9595425459       -4.8008774032
 H         7.6249848920       -0.6117218651       -1.1641447027
 H         8.0935408133        0.2541732112       -2.6203983970
 H         7.0548402947        1.0285747209       -1.7271752037
 H         6.5432582203       -5.5569821708       -3.7298315235
 H         6.5335350283       -5.0633479061       -2.0661604431
 H         0.8159928267       -6.9030863334       -4.1492780762
 H         1.6773563596       -5.4067758027       -3.8116818702
 H         2.4101716215       -6.8558126007       -4.8095239843
 H         5.0004150816       -7.6347948712       -4.0631759184
 H         3.9384303630       -8.6123139731       -3.0732776134
 H         5.6354041992       -8.1380013702       -2.5379226397
 H         5.2064620489       -6.4819179270       -0.6895224726
 H         3.4477447728       -6.0682785962       -0.3188912628
 H         3.9595582341       -7.7003605551       -0.5586513832
 Na       -3.5993833785        0.6879983026       -0.3518310719
