155

 C         0.8466313657        1.8849446167       -0.8821420024
 C        -0.2984657262        1.0056305425       -0.9121220638
 C        -0.4697916623       -0.3200804542       -1.8931064898
 C        -1.5619695545       -1.2859840510       -1.4087216896
 C        -1.2102861096       -2.4464275783       -0.3678787930
 C        -0.9083028382        0.2305799276       -3.3170891440
 C         0.9293900897       -1.0801389421       -1.9092685825
 O        -1.1841375903        1.2450336597       -0.1588521167
 O        -2.7106167074       -1.2517327789       -1.8879038682
 C        -2.4831545397       -3.1090980982        0.1536136000
 C        -3.4394417669       -2.1437466766        0.9208691584
 C        -4.8419806394       -2.5403906742        1.3938251545
 C        -5.9290143383       -1.5808794412        0.6502739674
 C        -6.1017800325       -0.1666639385        1.1668787708
 O        -3.0868549742       -0.9559649248        1.2221176606
 O        -6.5746343659       -1.9847441500       -0.2326436762
 C        -5.2760813467       -4.0439596563        1.1340551247
 C        -4.8071309109       -2.3263774303        2.9188964226
 C        -7.1433377635        0.3953774002        0.2269081024
 C        -6.5809675139        0.6582309980       -1.2131141258
 C        -7.6783792561        1.0227282620       -2.3586956596
 C        -7.2874670038        2.5101955426       -2.6337683934
 C        -5.9665376765        2.7397256806       -3.3062633898
 C        -7.3086763905        0.0358540681       -3.5903957485
 C        -9.1659797666        0.8150528292       -1.9721853363
 O        -5.4117267283        0.7035775147       -1.5316702554
 O        -7.9956550445        3.3152570173       -2.0028649034
 C        -5.1929994910        3.9963762774       -2.9109080168
 C        -4.2337905982        3.7854118070       -1.6439776942
 C        -4.4677192134        4.5429018643       -0.3507110516
 C        -3.6161700527        3.8271396380        0.8119465551
 C        -2.5239332901        4.6170691009        1.5137174294
 O        -3.3971915584        2.8856099518       -1.6566997303
 O        -3.9432112601        2.7285339806        1.2269642293
 C        -4.0411136382        6.0102121613       -0.5670544222
 C        -5.8729533950        4.6668753302        0.1198945399
 C        -2.1702083494        3.9798642127        2.9117703392
 C        -0.8719328541        4.5769207047        3.5027340023
 C        -0.4625433378        4.2890839732        4.9910216469
 C         0.8743145651        3.4651554657        5.1047732768
 C         2.1382514414        4.1413094289        4.4293552869
 C        -0.2613968592        5.6773426747        5.6766096734
 C        -1.5402311037        3.4860186758        5.6541746856
 O        -0.1860743227        5.3499348932        2.8815600013
 O         0.9430302501        2.4691067572        5.7556875626
 C         3.3032292697        3.1314724605        4.2707086463
 C         3.1869804083        2.0909116526        3.1528330071
 C         4.3401764889        0.9411549751        2.9352197434
 C         3.7845889494        0.2535566267        1.5367925083
 C         4.2883426433        0.7224474378        0.1056406587
 O         2.1832132896        1.9830125679        2.4002331422
 O         3.1299456238       -0.7515437833        1.6691948991
 C         5.7105641485        1.6763058753        2.8057452579
 C         4.3367519794        0.0354337092        4.1837036188
 C         4.5654600329       -0.5899935706       -0.6681507595
 C         4.7575793903       -0.3637835912       -2.2215493118
 C         6.1621043361       -0.8966388484       -2.9137673790
 C         6.3263626906       -2.4288559863       -2.4944086552
 C         6.0972665847       -3.5170067994       -3.5552625749
 C         6.2078064956       -0.4984015393       -4.4112149895
 C         7.3483744256       -0.1526029876       -2.1604371632
 O         3.9031589727        0.0722922174       -2.9628239644
 O         6.6924000949       -2.6698307111       -1.3961749218
 C         5.9613020956       -4.8908109077       -2.9565352139
 C         4.4698612113       -5.2756434606       -2.7755583494
 C         4.0345887616       -6.8289504256       -2.3564233418
 C         2.4619459623       -7.0478629395       -2.6219691631
 C         1.8119835120       -6.4515103113       -3.8574286290
 O         3.5606279598       -4.4952249491       -2.9468337372
 O         1.8089713059       -7.5636357226       -1.7434826520
 C         4.8169716971       -7.9630069583       -3.0992464810
 C         4.3301731939       -6.9840860989       -0.7934952873
 H         1.7705885663        1.5396980490       -1.4597630651
 H         0.5614565798        2.8494388560       -1.2444842460
 H         1.2530814577        2.1445282544        0.1781019365
 H        -0.5916735004       -3.2743916765       -0.8709325512
 H        -0.6461740472       -1.9784198187        0.3736091962
 H        -1.7929989114        0.8119073072       -3.2063811088
 H        -1.1629290390       -0.5365524977       -4.0762391608
 H        -0.1586356316        1.0254746463       -3.6752627431
 H         1.2701046085       -1.4479531896       -0.9731903021
 H         0.7799432485       -2.0093737929       -2.5414347982
 H         1.7718139916       -0.5099090721       -2.4896775286
 H        -2.9228801231       -3.7503586836       -0.5820462279
 H        -2.1801849329       -3.8755290680        0.8713388241
 H        -6.4030939371       -0.2363977443        2.1996719687
 H        -5.2950325573        0.5028536410        1.1534891350
 H        -5.0524641012       -4.3245576839        0.0756406399
 H        -6.2821664748       -4.0700056353        1.4125489731
 H        -4.8957571524       -4.7887727814        1.7884534057
 H        -5.6594898728       -2.6073865671        3.3713884639
 H        -4.2505504299       -3.1736392373        3.2189747066
 H        -4.3933133522       -1.3948519415        3.2986133567
 H        -7.5127469072        1.3780870878        0.5077188928
 H        -7.9551882254       -0.2379605532        0.0710800904
 H        -5.2191593599        1.8357297878       -3.3454365628
 H        -6.1121613136        2.8031505445       -4.3312851999
 H        -6.6382600185       -0.7334396309       -3.2398790168
 H        -6.8591944389        0.5245473760       -4.5547862117
 H        -8.2050505051       -0.3366365729       -3.9237628043
 H        -9.6171240686        1.5573857307       -1.3364154538
 H        -9.6167646245        0.8070240176       -2.9486179922
 H        -9.3448733146       -0.1661679947       -1.4445787866
 H        -4.4956873343        4.2172484114       -3.7709586259
 H        -5.8369113007        4.8230872465       -2.7699488507
 H        -1.5595394887        4.8783574055        1.0169895201
 H        -2.9646572046        5.5768106648        1.7999592132
 H        -3.1224848577        6.2232684168       -1.1462391503
 H        -3.7669689748        6.3921976237        0.4102345483
 H        -4.9391903433        6.5963521009       -0.9418474507
 H        -6.4055542935        3.7382656206        0.1699818268
 H        -5.9726131081        5.0733058515        1.0818151567
 H        -6.5007470480        5.2376581166       -0.5948310850
 H        -1.9536911646        2.9576214754        2.7582439329
 H        -2.9870915539        4.0328520493        3.5729315795
 H         1.8412688344        4.5485860842        3.5124687830
 H         2.5024790261        4.9820317796        5.0737503906
 H         0.3678920090        6.3392011955        5.1132867518
 H         0.3613950406        5.4969675403        6.6287414203
 H        -1.1613334746        6.2017792459        5.9172068781
 H        -2.4665194938        3.9734530039        5.5949386039
 H        -1.7866346765        2.5512818470        5.0749474792
 H        -1.2098130666        3.3827526651        6.7220748047
 H         4.1301649199        3.7974089809        3.9274845527
 H         3.6580243574        2.6372512985        5.2342766687
 H         3.6292850818        1.2996969670       -0.5503956595
 H         5.1745237872        1.2659290491        0.0802557927
 H         5.8801277388        2.1581998322        3.7600267497
 H         5.6574972490        2.4509865204        2.0405147546
 H         6.4950876050        1.0232225478        2.4839112444
 H         3.4282012189       -0.5948381994        4.1861575929
 H         5.1864278754       -0.7082173744        4.2102014789
 H         4.3961050380        0.7173402422        5.1004437224
 H         3.7536544288       -1.2613940264       -0.6034400284
 H         5.5194714966       -0.9684071233       -0.3517512905
 H         5.2730229422       -3.2848558058       -4.1756908107
 H         6.9747623315       -3.5242570761       -4.2354719523
 H         7.1177505498       -0.9135215189       -4.9034952758
 H         6.2265264828        0.6022427089       -4.4858257358
 H         5.4273377881       -0.9284496086       -5.0369079382
 H         7.9701762992       -0.9106935541       -1.6149847567
 H         7.9652069510        0.4174706837       -2.8338747387
 H         7.0170980528        0.6960570210       -1.6470248632
 H         6.4315300841       -5.7736421368       -3.5937226843
 H         6.4311503520       -4.9232129061       -1.9825132405
 H         0.8068778780       -6.8808106730       -3.8713873816
 H         1.6716977665       -5.4050718780       -3.6886594221
 H         2.3124920353       -6.7171965167       -4.7368625234
 H         5.1067107727       -7.6309687905       -4.0501974012
 H         4.2375240442       -8.8989076857       -3.0932196941
 H         5.6951804793       -7.9852110846       -2.4990074974
 H         5.3890978022       -7.0259927639       -0.6025390996
 H         3.7969712398       -6.1957696760       -0.2507226119
 H         3.8214189583       -7.9515366054       -0.4798148267
 Na       -3.3934566414        0.6519321571       -0.4147913619
