155

 C         1.4834124723        2.1200333755       -1.4578650934
 C         0.2056489185        1.2690988233       -1.1377538940
 C         0.1816815970       -0.1124932107       -1.8036711929
 C        -0.9132814331       -0.9604817920       -1.1195407456
 C        -0.5777338317       -1.6142185148        0.2488686905
 C        -0.2173726782        0.0952363238       -3.3053076612
 C         1.5730391839       -0.7848328051       -1.8291761963
 O        -0.6942242505        1.6783923542       -0.4213332135
 O        -2.0984070163       -0.6923070274       -1.4829238750
 C        -1.7234124060       -2.4286118691        0.9509414697
 C        -3.1584580849       -1.8641968964        0.7588014710
 C        -4.3621550678       -2.8646996243        0.4261608383
 C        -5.5476977791       -2.1641030120       -0.2099249636
 C        -6.2144589782       -0.9667883109        0.5736596792
 O        -3.4414060169       -0.6549083545        0.9754020922
 O        -6.0005380643       -2.5169946779       -1.3174450825
 C        -3.9603640049       -4.1699718545       -0.3575392717
 C        -4.7139926715       -3.4117071285        1.8794620915
 C        -7.3275399274       -0.3004661218       -0.2754245148
 C        -6.7322421402        0.6452093730       -1.3387158739
 C        -7.6599741950        1.1680267560       -2.4173105304
 C        -7.3107930259        2.6343566231       -2.9686260479
 C        -5.9545455144        2.8839222227       -3.6219844852
 C        -7.6377420663        0.0488669851       -3.4794509877
 C        -9.0826941350        1.2837706896       -1.8762384073
 O        -5.6401094635        1.1958636945       -1.2118801651
 O        -8.0459330974        3.5509177308       -2.8433439835
 C        -5.1649741968        4.0389957634       -3.0207094230
 C        -4.5097669011        3.6774395342       -1.7206915316
 C        -4.8393944333        4.5396836097       -0.3790130476
 C        -4.1649269134        3.8883213156        0.8353529559
 C        -3.4912748177        4.7935964930        1.9673062437
 O        -3.5566997234        2.8919323225       -1.7729681126
 O        -4.0690460876        2.6954519031        1.0750382046
 C        -4.3183372093        6.0202279232       -0.7275877915
 C        -6.4023382221        4.5832775902       -0.3213938040
 C        -3.0913221663        3.9280639289        3.1968059448
 C        -2.0269479798        4.5627206382        4.0370461734
 C        -1.0503523203        3.6912162633        5.0579374824
 C        -0.0330363536        2.9113443089        4.1342623750
 C         1.1914357070        3.6572934381        3.5050041050
 C        -0.2952305820        4.5113600120        6.1228031450
 C        -2.0624841926        2.6293566098        5.7163882132
 O        -1.9849537704        5.7624369258        4.1732469929
 O        -0.2893701062        1.8348307770        3.6444965142
 C         2.5305419323        2.9969124381        3.8859390990
 C         3.0474982423        2.0596636678        2.8075877344
 C         3.8286611980        0.7758124620        3.2641757737
 C         4.2247005295       -0.0157726244        1.9887344814
 C         5.4996462460        0.3941972188        1.1580745119
 O         3.1345800310        2.3896858093        1.6931047361
 O         3.5942917362       -0.9904900589        1.5845834283
 C         4.9693262291        1.3383024162        4.1239331475
 C         2.9635685110       -0.0840077591        4.0970848342
 C         6.0909348105       -0.5295261223        0.0403512286
 C         5.6378070305        0.0105645230       -1.3423045591
 C         6.2518941902       -0.5061280039       -2.6629689820
 C         6.4249907050       -2.1237260302       -2.5339794949
 C         5.1814375233       -2.9741122407       -2.7838414353
 C         5.3088152995       -0.1074588001       -3.8925559052
 C         7.6062952546        0.0877403501       -2.9110013411
 O         4.8427160035        0.9009084036       -1.3575047770
 O         7.5021642093       -2.6288403089       -2.1945328755
 C         5.3994514593       -4.4855424638       -2.9590059080
 C         4.3250141131       -5.2856704278       -2.2519984699
 C         4.2581872911       -6.8396553626       -2.0645096529
 C         2.6424755347       -7.2441409817       -1.8630003138
 C         1.7514747314       -6.9676957920       -3.1039638715
 O         3.3930615737       -4.6397330350       -1.7997285206
 O         2.2356878845       -7.8209593849       -0.8862533826
 C         4.8467903130       -7.6587365730       -3.1949274093
 C         4.9938893374       -7.2497324809       -0.7198819370
 H         1.9071504603        1.8414135110       -2.3983192033
 H         1.1003885965        3.1424500274       -1.6774387149
 H         2.2548246397        2.2578383430       -0.7963698168
 H         0.3531934701       -2.1256105828       -0.0171643696
 H        -0.3174683976       -0.8604349289        1.0034943371
 H        -1.1701896896        0.6744966753       -3.5337028289
 H        -0.3237633373       -0.8722659533       -3.8403457864
 H         0.6679626856        0.4156635258       -3.7886375611
 H         2.0183630699       -0.9868189231       -0.8327524391
 H         1.5305922875       -1.7767671174       -2.2146884872
 H         2.2257628976       -0.1808842971       -2.3669692875
 H        -1.6925750927       -3.4440855641        0.4661966065
 H        -1.6387084787       -2.4443928725        2.0662533568
 H        -6.7341732294       -1.3361187805        1.4973559474
 H        -5.4474851039       -0.1543138074        0.8996662942
 H        -3.6332276652       -3.9801871235       -1.3460199968
 H        -5.0095880782       -4.5092743794       -0.5230746099
 H        -3.2700511206       -4.9122966992        0.1215695508
 H        -5.8646519816       -3.6457056150        1.9571876556
 H        -4.0472835581       -4.2613121965        2.1889956170
 H        -4.5208033344       -2.6035351825        2.5705589327
 H        -7.7965247334        0.4702408485        0.4649004097
 H        -8.1458054316       -0.9710573435       -0.5582307265
 H        -5.4697374631        2.0090004936       -3.5608536199
 H        -6.1026433161        3.1439463703       -4.6954734095
 H        -6.5868983601       -0.0570265327       -3.7031097482
 H        -8.1416574434        0.2424370286       -4.3392079140
 H        -7.9686088253       -0.9510525282       -2.9603686953
 H        -9.2886217193        2.2541009265       -1.3780000922
 H        -9.8801363171        1.1124910354       -2.5722900644
 H        -9.3065809707        0.5069694688       -1.1689418815
 H        -4.3690620956        4.3443904246       -3.6681127770
 H        -5.8913806775        4.9106347767       -2.8463003649
 H        -2.6197121592        5.2706107045        1.4883590483
 H        -4.0699490725        5.6187677655        2.3349295977
 H        -3.3003867990        6.2294253971       -0.3409676874
 H        -5.1402645782        6.6099437620       -0.2875457898
 H        -4.3127569978        6.2697851747       -1.7748124379
 H        -6.7996210649        3.5686980879       -0.4114642071
 H        -6.7296925853        4.9256864991        0.7056748756
 H        -6.8796254366        5.1942051706       -1.0816796744
 H        -2.8761772065        2.8350946914        2.8723127884
 H        -3.9819515020        3.9311649135        3.8856733667
 H         0.9870307620        3.8316104973        2.4633315500
 H         1.2331584666        4.6883578566        3.9390591490
 H         0.3262190062        5.2715817430        5.6027892156
 H         0.3679689419        3.9420927243        6.6902257722
 H        -0.9657724847        5.1369707774        6.7688892319
 H        -2.9680346263        3.1444719624        6.1722429570
 H        -2.1007931857        1.8038786318        5.0102180413
 H        -1.5420952001        2.2637396789        6.5882114652
 H         3.3146311041        3.7618234091        4.0534507629
 H         2.5564629601        2.3875511596        4.7725941484
 H         5.1515172611        1.4031403633        0.7842852171
 H         6.3304547421        0.4694357775        1.9038091299
 H         4.5580438342        1.6274430333        5.1570566498
 H         5.5208789523        2.2451028068        3.6693829187
 H         5.8864488628        0.6695439942        4.1422735697
 H         1.9558412353       -0.0937631835        3.6528650171
 H         3.2409963611       -1.1357710600        4.1942519732
 H         2.9104162797        0.3112096873        5.0928817752
 H         5.8038683684       -1.5828931223        0.1980547640
 H         7.2189032866       -0.6758256679       -0.0632317108
 H         4.3527680551       -2.6919539203       -2.1693476064
 H         4.8934983601       -2.7186933617       -3.8481442746
 H         5.5433158341       -0.7136891047       -4.7750580131
 H         5.5235682210        0.9507358255       -4.2044622774
 H         4.2846263060       -0.1972283636       -3.5398467953
 H         8.3516584851       -0.1989303162       -2.1633853753
 H         7.8261939335       -0.2829695201       -3.8953924847
 H         7.5028871674        1.2010380559       -2.8752979470
 H         5.3498845242       -4.7508748539       -3.9392623902
 H         6.4518787409       -4.8143495475       -2.6016400923
 H         2.3856950121       -6.9763302794       -3.9880704701
 H         0.9925469803       -7.7916937819       -3.1579160257
 H         1.1165323546       -6.0306863662       -3.0073355683
 H         4.5777465432       -7.2955996980       -4.2449683128
 H         4.4903729362       -8.6822695988       -3.1787416068
 H         5.9854473040       -7.5824676705       -3.2691941190
 H         6.0425225175       -6.8986399720       -0.6557979269
 H         4.3772346604       -6.9073987858        0.1373113068
 H         4.9566261753       -8.3297434659       -0.6657178127
 Na       -3.1618928774        1.1170967194       -0.4422113035
