155

 C        -1.7160792917       -9.9560761679        0.0663279244
 C        -1.7156243162       -8.5401518795        0.6257805509
 C        -2.6249975256       -7.3742945181       -0.2078625927
 C        -2.7625558325       -5.9468889774        0.3472967003
 C        -2.7315058418       -5.9079975280        1.8452810377
 C        -1.7982506289       -7.0824215622       -1.4587596912
 C        -4.0243098314       -7.8438786205       -0.5523878306
 O        -1.1005608613       -8.0932738252        1.5484628359
 O        -2.9519435923       -5.0512110595       -0.3846496375
 C        -3.2990276477       -4.5758937075        2.4546016703
 C        -4.6447596636       -4.1736865662        1.8702716309
 C        -5.1694890979       -2.6610782333        1.9139471089
 C        -4.2270062450       -1.9015380903        0.9140050974
 C        -4.6554479671       -1.6212151149       -0.5087690662
 O        -5.3554313098       -5.0146097058        1.3256546590
 O        -3.1384763256       -1.7746331459        1.3612147370
 C        -6.6258262844       -2.7122832069        1.4931209164
 C        -4.9249940121       -2.1316910365        3.3867223346
 C        -3.5867585006       -2.0389700796       -1.5327692403
 C        -2.4118811692       -1.0583785578       -1.5719801833
 C        -1.0982679541       -1.7636696820       -2.0993888787
 C         0.0034079855       -0.7140772688       -2.5865946840
 C         1.3483356870       -1.4595217913       -2.9519689130
 C        -0.5177446037       -2.5396267283       -0.8938238141
 C        -1.5094167357       -2.7667591209       -3.2736274340
 O        -2.5728026739        0.1277242784       -1.2191753703
 O        -0.0458820430        0.4765239975       -2.4876229434
 C         2.0002303556       -0.7413789967       -4.1901944850
 C         1.2256421457       -1.2736580564       -5.4517973809
 C         1.0734446980       -0.3396972588       -6.7724991579
 C        -0.0936415969        0.5784834458       -6.3748366844
 C        -1.5779723407        0.0930786690       -6.3806755046
 O         0.4557614497       -2.2082155485       -5.4448752262
 O         0.1410100729        1.7421259427       -5.9859272060
 C         2.3711340094        0.3934037478       -7.1278394516
 C         0.7491614618       -1.3050745609       -7.9322860495
 C        -2.4133679750        1.3317112626       -6.4748023605
 C        -2.3063488096        2.1612681710       -5.1120684974
 C        -2.3122263520        3.8027997530       -5.2539091055
 C        -1.8917796776        4.5061953964       -4.0038780760
 C        -0.7617159420        5.5436701564       -4.0568837540
 C        -1.6887819255        4.2608553705       -6.5401174624
 C        -3.8722394932        4.0522832971       -5.3783136439
 O        -2.4450819160        1.6195948241       -4.0304759192
 O        -2.5269723026        4.3521526824       -2.9753419410
 C        -0.5899397335        6.2524901677       -2.6237152822
 C        -0.1853688219        5.1606603465       -1.6878494609
 C        -0.1186927932        5.4106335322       -0.1244763197
 C        -0.2113760873        4.0307157160        0.7055847077
 C         0.0199890087        4.1924425095        2.2627505480
 O         0.1490916539        4.0547516855       -2.0785332152
 O        -0.7343258513        3.0282648131        0.3021931153
 C         1.3888910969        5.8987732631        0.0755088801
 C        -1.1620266708        6.4545220652        0.3355017246
 C         1.4157370899        4.1823849689        2.8178532250
 C         2.3683575574        3.1834175168        2.1352525234
 C         3.6699207676        2.6635779344        2.8521195177
 C         3.4525559125        2.1718107178        4.2679979564
 C         3.2658268860        0.6614271724        4.4704479145
 C         4.3743434404        1.6477900499        2.0111060110
 C         4.5100509746        3.9908915468        2.9030838258
 O         2.0271266794        2.8296134547        1.0278513234
 O         3.2147355798        2.9218460291        5.2088796612
 C         3.3036434536        0.2971243390        5.9906340698
 C         4.7450156922        0.1987917634        6.6185849907
 C         5.1023183090       -0.1346450754        8.1432197135
 C         4.7062954347        1.1850141075        9.0024036467
 C         5.1221917911        1.2298317491       10.4607178327
 O         5.7063087153        0.5271176645        5.9214492639
 O         4.1040118530        2.1027710507        8.5165923874
 C         4.0904881548       -1.2278077189        8.6362876005
 C         6.6106614105       -0.6203568002        8.4157658035
 H        -2.1433587603      -10.0116673730       -0.9033611687
 H        -0.7556741024      -10.3626101045       -0.0508424527
 H        -2.2075019302      -10.7165442062        0.6844393820
 H        -3.2757644641       -6.7749576654        2.2949787060
 H        -1.6892318224       -5.9670182211        2.2438384600
 H        -2.4805680627       -6.5944714821       -2.1275200091
 H        -1.4253414157       -7.9603635960       -1.9627938861
 H        -0.9379963638       -6.3856038898       -1.4000844528
 H        -4.7837227133       -7.3984434001        0.1349934613
 H        -4.1533912471       -7.4953306467       -1.5293787602
 H        -4.1414401702       -8.9196706167       -0.4332258536
 H        -3.3207314167       -4.7910756379        3.4557511349
 H        -2.6228009052       -3.7437300745        2.1937336819
 H        -5.6160595032       -2.0963067277       -0.7817099244
 H        -4.7996883901       -0.4785016348       -0.5800621278
 H        -6.8839773644       -1.7776966598        0.8825785067
 H        -7.3943434860       -2.9495158176        2.2977723768
 H        -6.7167019057       -3.4524135542        0.7587777951
 H        -3.9553736164       -1.9852181825        3.7423062108
 H        -5.3081960393       -1.1069371871        3.4138338095
 H        -5.5182964956       -2.6522468373        4.1359194230
 H        -3.9193581979       -2.2120961858       -2.5774451266
 H        -3.2703876234       -3.0500967483       -1.1622655412
 H         1.9553139318       -1.3387567382       -2.0324376808
 H         1.1175744426       -2.5473418184       -3.1291726023
 H        -1.1746673609       -2.7024610589       -0.0347164007
 H         0.3161123825       -2.0448370094       -0.5266008331
 H        -0.2252034604       -3.5424337603       -1.1430913625
 H        -2.1199783572       -3.5049048367       -2.7857807904
 H        -2.0420416558       -2.2525342537       -4.0547722967
 H        -0.6216001378       -3.3289468924       -3.6636113032
 H         1.9355247235        0.3626932376       -4.1308784679
 H         3.0116952626       -0.9746886717       -4.3219103983
 H        -1.9272589657       -0.7306715666       -7.0808564470
 H        -1.7892554248       -0.2966566464       -5.3922210994
 H         2.7881945867        1.0067131219       -6.3556130181
 H         2.3325056003        0.9413567170       -8.0140075961
 H         3.1678127133       -0.3111919193       -7.2335550213
 H         0.3018908302       -0.7094658065       -8.7104390793
 H         1.6469276243       -1.6885889363       -8.4642360606
 H         0.1065218642       -2.1320174806       -7.6098249228
 H        -3.5131112763        1.1111395485       -6.5244540847
 H        -2.2194340574        2.0464656819       -7.2126407493
 H         0.0763824420        5.0409093481       -4.5396190203
 H        -1.1762010618        6.2761282385       -4.8097534081
 H        -0.6739449305        4.0129757520       -6.7601945255
 H        -2.1942373750        5.2832006336       -6.7171356407
 H        -2.0578467345        3.7629402307       -7.4030780257
 H        -4.2003087841        5.1130412279       -5.3377467794
 H        -4.0267835088        3.7589700248       -6.3943366021
 H        -4.5256203310        3.4754204980       -4.7017000458
 H         0.2167710988        7.0233612819       -2.7110807978
 H        -1.6018830520        6.7258807779       -2.4250480167
 H        -0.3608234030        5.1156402979        2.6819840049
 H        -0.5813700704        3.3306624879        2.5962812668
 H         2.0943291385        5.1326079118       -0.2652962042
 H         1.6527189878        6.2457064840        1.1167540122
 H         1.4723709503        6.7548201146       -0.5500712672
 H        -1.1833245577        6.8064588240        1.3242351911
 H        -1.0102483421        7.3899611953       -0.2203335281
 H        -2.2046454655        6.1110961155        0.1627358495
 H         1.3792416636        4.0166791783        3.8673388675
 H         1.8252785597        5.1891132127        2.6144049493
 H         2.2915427779        0.4328489218        4.0441050361
 H         3.9721416565        0.1819873921        3.8329149587
 H         3.6545687531        0.9088687168        1.6774285426
 H         5.1885133796        1.4163111303        2.6061507621
 H         4.7111107316        2.0590076523        1.0767944592
 H         5.5139532344        3.5250157656        3.0306486797
 H         4.4667790040        4.6545821990        2.0722711851
 H         4.3891841449        4.5506610619        3.8245801817
 H         2.7302076982        1.0062238925        6.5120779907
 H         2.6989969622       -0.5324292223        6.2160515428
 H         5.2337700774        2.3033930296       10.6518721499
 H         4.3133451400        0.9043096473       11.0644250988
 H         6.0144878247        0.7379762267       10.7606388825
 H         4.1103261088       -1.3225360992        9.7536305881
 H         4.3000990421       -2.2788799253        8.3165407691
 H         3.0467720847       -1.0912223771        8.2384877359
 H         6.7210391123       -1.0792294709        9.4150993106
 H         6.9589441202       -1.3813278190        7.7446686756
 H         7.1978973880        0.3172864112        8.4382102220
 Na       -1.4880832423        2.2627391685       -1.9098220093
