155

 C         0.8552014914        3.1544918286       -1.0736220181
 C        -0.2472158051        2.1429475301       -1.2454940425
 C         0.1991629152        0.6808061943       -1.7336042595
 C        -0.8249306140       -0.4000239636       -1.0941250828
 C        -0.4646306378       -0.9822057818        0.3968718852
 C         0.1413380007        0.5588170022       -3.2380645556
 C         1.6835172823        0.4743555095       -1.2782120462
 O        -1.4147887002        2.3157802105       -0.9259992283
 O        -1.9138622933       -0.6627120726       -1.5672872907
 C        -1.4606146352       -2.0938669126        0.8446461683
 C        -2.8238475116       -1.7721058646        0.3048184245
 C        -3.5782342430       -2.8163144341       -0.5422952562
 C        -4.8402150072       -2.4575188630       -1.3615175152
 C        -6.1017351711       -1.8484709407       -0.6528069648
 O        -3.3027779876       -0.6630782486        0.7411525357
 O        -5.0073197991       -2.9231209910       -2.5108237581
 C        -2.6376767241       -3.7468926241       -1.4190512325
 C        -4.1544359180       -3.8108914636        0.5931626899
 C        -7.0830790398       -1.1669026255       -1.5642838840
 C        -6.5472027390        0.0162216969       -2.3918827400
 C        -7.5885830560        0.7136563193       -3.3004657375
 C        -7.4293033969        2.3457827353       -2.8633639823
 C        -6.4951497656        3.3768859211       -3.7556693033
 C        -7.1277333502        0.3190297693       -4.7232685081
 C        -9.0996601360        0.3001044602       -3.1091937459
 O        -5.3753662719        0.3480198055       -2.3706672172
 O        -7.9376325319        2.7038501172       -1.8622020895
 C        -6.1403613745        4.5012216285       -2.7868330831
 C        -5.1629842113        3.9685065690       -1.7786718990
 C        -4.7481941023        4.7311950846       -0.4396101087
 C        -4.2684922948        3.6144475007        0.6953684797
 C        -3.1848566610        4.1073742750        1.7440715500
 O        -4.5348760619        3.0148878001       -2.0577615460
 O        -4.9094239306        2.5966867534        0.7996490730
 C        -3.5800692057        5.7323522955       -0.8397406481
 C        -5.9164791154        5.6171322204        0.1902226212
 C        -3.0082922621        2.9852023995        2.7481192296
 C        -2.1335520216        3.4408108800        3.9268416867
 C        -1.1163651744        2.5158924984        4.6075935500
 C         0.1385179304        2.3596758066        3.5426159674
 C         1.3757672981        3.4861992933        3.6078925099
 C        -0.4503285975        3.1448563984        5.8333210818
 C        -1.6676016586        1.0251271108        4.8168249281
 O        -2.1428200817        4.5986524840        4.2643276146
 O         0.0022958181        1.5153082455        2.6603693850
 C         2.6920495400        2.8029873047        3.9726074705
 C         2.9209891453        1.6989373254        2.9865199711
 C         3.3772804752        0.2734732059        3.3957148142
 C         4.5960723240       -0.1853424723        2.4337690948
 C         5.5792782061        0.9218644911        1.9010250661
 O         2.7745243476        1.9347236002        1.8149879760
 O         5.0196953882       -1.2709679249        2.3880681211
 C         4.0150889302        0.1574381835        4.8370321472
 C         2.1335924434       -0.7166097808        3.2286583265
 C         6.3379479838        0.5801047625        0.6676985979
 C         5.6032981296        0.6652663474       -0.6199532652
 C         6.0425846159       -0.2977757589       -1.9012476200
 C         6.0985054390       -1.7829400732       -1.1894593356
 C         4.7023482415       -2.2038980458       -0.5956059705
 C         5.0262365166       -0.1852120373       -3.0574816379
 C         7.4829896215        0.1970253557       -2.4892089168
 O         4.7917899771        1.5753118806       -0.8876245059
 O         7.0763936903       -2.5067985087       -1.1200429912
 C         4.6190609265       -3.7185732820       -0.2453264609
 C         3.9112390157       -4.5284152404       -1.3552004163
 C         4.2397533772       -6.0076606525       -1.5788519191
 C         2.9948192681       -6.9335767288       -1.0130684856
 C         1.7136545507       -6.7777526456       -1.8963015446
 O         3.0387491225       -3.9752750639       -1.9843528160
 O         3.1200036994       -7.5662910602        0.0189047682
 C         4.3774062730       -6.1063925848       -3.0895895167
 C         5.5065623791       -6.4351233326       -0.8286034417
 H         1.5604292809        3.0744568986       -1.8383909602
 H         0.3783298428        4.1634137062       -1.0821937023
 H         1.3407166708        3.0250240671       -0.0926930097
 H         0.4334676840       -1.4720713627        0.5600005895
 H        -0.4609437242       -0.0357700850        1.0141900263
 H        -0.8726693016        0.7327344192       -3.5122184042
 H         0.4442760094       -0.4559171746       -3.5928260701
 H         0.9351345738        1.2731381764       -3.6810388177
 H         1.8871079843        0.5196758111       -0.2210373365
 H         2.0558186183       -0.5289951179       -1.5681252507
 H         2.2226443007        1.2333893426       -1.7592939915
 H        -1.0303788606       -3.0721919538        0.8081221056
 H        -1.4921274757       -1.9933314924        1.8756117875
 H        -6.6377501737       -2.6657882705       -0.1387886048
 H        -5.6462643503       -1.1708539979        0.0755746756
 H        -2.3668128137       -3.2878593998       -2.4180855494
 H        -3.2085659042       -4.6458170551       -1.6759101539
 H        -1.6986961763       -3.9131606811       -0.9139961790
 H        -4.7059622067       -4.6455080470        0.1392149448
 H        -3.3804497417       -4.0932400223        1.4319510045
 H        -4.9271854559       -3.2339649134        1.1957772447
 H        -7.8664388878       -0.8430287561       -0.8648359432
 H        -7.4909395976       -1.9920164593       -2.2055219311
 H        -5.6231551822        2.8501787543       -4.3206334510
 H        -7.1459617540        3.7255037259       -4.4153044946
 H        -6.1332965884        0.0781631850       -4.7895111160
 H        -7.2848586378        1.0342325845       -5.5335062359
 H        -7.7334940827       -0.5572463563       -5.0180389069
 H        -9.4951673592        0.3888081095       -2.1253024155
 H        -9.7836556418        0.8822970510       -3.7714898622
 H        -9.1769869701       -0.7441762911       -3.4482491507
 H        -5.7635664454        5.3945466624       -3.3070488756
 H        -7.0488941011        4.9566253828       -2.3266967549
 H        -2.2080677087        4.3067415085        1.1878184752
 H        -3.6566555821        5.0999581917        2.1188624541
 H        -2.8955544416        5.1888581874       -1.4929434206
 H        -3.0892039702        6.2468326575        0.0184600725
 H        -3.9114827726        6.5047769783       -1.5780019851
 H        -6.8464613258        5.0387039378        0.2634306238
 H        -5.5516209311        5.9062860336        1.1704679139
 H        -6.0521095353        6.4332814131       -0.5100579911
 H        -2.7540156529        2.0970401123        2.2813262986
 H        -3.9219680705        2.7474699715        3.2835630995
 H         1.6204813115        3.8861865415        2.5475301913
 H         1.1970765456        4.3145619136        4.2695557687
 H        -0.0450876257        4.1303684772        5.6296041012
 H         0.3373536322        2.4066426926        6.2160213613
 H        -1.1759758181        3.3460742226        6.5955521075
 H        -2.6368543070        1.1374940484        5.2186420292
 H        -1.5329237526        0.4558048019        3.8641392807
 H        -1.2142989884        0.5644483480        5.7059662463
 H         3.4149083010        3.6689308898        4.0038608050
 H         2.4365473414        2.4493319355        4.9821004686
 H         5.0206896336        1.8846531929        1.9107895322
 H         6.3599688546        1.0823984617        2.7576412259
 H         3.2049311059        0.4167346842        5.5494172744
 H         4.8955901745        0.8640264626        4.9470812314
 H         4.5115388401       -0.8496879845        4.8836355533
 H         1.7556184945       -0.7153626401        2.1703343646
 H         2.4814876694       -1.7112121744        3.4170211676
 H         1.3506267688       -0.4782024499        3.9419991093
 H         6.5782261066       -0.4357263991        0.8247073607
 H         7.1600958672        1.2701420066        0.4577220793
 H         4.5859853883       -1.6558844430        0.2652136117
 H         3.8882442854       -1.9109921730       -1.3450249405
 H         4.9260176385       -1.1098997714       -3.6765980760
 H         5.3833387611        0.5462361193       -3.7902604171
 H         4.0416310062        0.1955514270       -2.6656294636
 H         8.3189365132       -0.2762179227       -1.9810024427
 H         7.5263370098       -0.0790324497       -3.5474374240
 H         7.6279548846        1.1829239813       -2.1973925545
 H         5.6720851672       -4.0828273413       -0.3412892697
 H         4.3270206514       -4.0130081073        0.7207521359
 H         1.6237392311       -5.7836815219       -2.3994845048
 H         1.7783001295       -7.5125107421       -2.7699080712
 H         0.8582765333       -7.0317743841       -1.2680471296
 H         3.4672437243       -5.8944244497       -3.6661020193
 H         4.4790433077       -7.2129533605       -3.3908787590
 H         5.0313746948       -5.4783929910       -3.6814613402
 H         6.3040841110       -5.6881012874       -1.0615584152
 H         5.3047526257       -6.5021975659        0.2291482840
 H         5.9922948776       -7.3867355329       -1.1158828458
 Na       -3.8801121839        1.1322856097       -0.7347861295
