155

 C         0.4494407475        3.5574256698       -0.3007700841
 C        -0.4698015169        2.4516450354       -0.8667104181
 C        -0.1090415452        1.2241703528       -1.7128301446
 C        -0.9304372237        0.0419886356       -1.2262635570
 C        -0.7930173704       -0.4598161633        0.2118850985
 C        -0.3555371759        1.5720493266       -3.1783862404
 C         1.4814617920        0.8462700713       -1.5882091153
 O        -1.6760828854        2.6403808250       -0.7883017160
 O        -1.7503246271       -0.4283584820       -1.9656337797
 C        -1.4724915281       -1.8068753483        0.4319208410
 C        -2.9617177985       -1.6363259468       -0.1498919495
 C        -3.6594501230       -2.8061106702       -0.8514567537
 C        -4.9803007164       -2.5703260724       -1.7604317947
 C        -6.2267141395       -2.0025029546       -1.0084330002
 O        -3.6384203823       -0.6539389247        0.2686115814
 O        -4.9952377767       -2.7785905398       -2.9227607071
 C        -2.6847343132       -3.5995786937       -1.7430562699
 C        -3.8946427316       -3.8060349391        0.3365388462
 C        -7.1744780597       -1.4087191884       -2.0283196440
 C        -6.5157727701       -0.3020784006       -2.7554127341
 C        -7.3250074037        0.5770106919       -3.9263958845
 C        -7.7191126831        1.9196455635       -3.0394087607
 C        -7.2876255227        3.3871496321       -3.4254936599
 C        -6.4473787174        0.7887399632       -5.1143460406
 C        -8.6523572501       -0.1013958468       -4.3319767127
 O        -5.2960220393       -0.0943035810       -2.5170631846
 O        -8.5043091232        1.6638541380       -2.1324616308
 C        -6.9908356917        4.2199425247       -2.1957787545
 C        -5.4783462766        3.9915837476       -1.8374801602
 C        -4.8525324588        4.6202672454       -0.5731789734
 C        -4.1534696939        3.5988337906        0.3413096845
 C        -3.3500102302        3.9244510756        1.6843837609
 O        -4.7651514864        3.3851506104       -2.6250899882
 O        -4.3085888341        2.4069343743        0.0544024830
 C        -3.8582918717        5.6797270995       -1.0488242754
 C        -5.9790500464        5.4337813077        0.2854054086
 C        -3.1136753380        2.7091976494        2.4770969854
 C        -2.3243045136        3.0925756149        3.7842439225
 C        -1.5832118306        1.9940690329        4.5752066425
 C        -0.2282501449        1.8458193231        3.8897721918
 C         0.8919851060        2.7809303699        4.1661375411
 C        -1.5127979359        2.2386160163        6.1144270023
 C        -2.3291678096        0.6586835767        4.3471238442
 O        -2.1895867623        4.2481121381        4.1592249649
 O        -0.1025513357        0.9193170394        3.1109993049
 C         2.2060330584        2.1278122111        4.6567704622
 C         3.1967766565        1.6305500591        3.4638176105
 C         4.3208017993        0.6443301058        3.8914795442
 C         5.4612204876        0.5115870768        2.7691575183
 C         5.9907761587        1.6520429626        1.9724230915
 O         2.9421889902        1.8789826788        2.3297780119
 O         6.0196569739       -0.5896178442        2.5988392706
 C         4.9153761292        0.8523016608        5.3665515995
 C         3.6365895766       -0.8102947435        3.8860810024
 C         6.6673420042        1.1756506166        0.7095833309
 C         5.6310626912        0.4750572828       -0.2209990384
 C         6.3229976099       -0.4913682996       -1.3274190864
 C         6.2364516984       -2.0161226367       -0.8818540655
 C         4.9915877405       -2.3336111420        0.0083912791
 C         5.4607508598       -0.5495099500       -2.6542345531
 C         7.7830824592        0.0572839967       -1.8392310835
 O         4.4670187757        0.6704780452       -0.2085705277
 O         7.1023768821       -2.7934100477       -1.1788861757
 C         4.6268931818       -3.7949592633        0.0481854129
 C         4.2403082767       -4.3028035804       -1.3949473135
 C         4.0500174503       -5.8275617041       -1.5880324149
 C         2.9291216371       -6.3184656455       -0.6422998340
 C         1.7150210884       -6.9209681560       -1.3587601674
 O         4.0400585535       -3.5799401126       -2.3422536078
 O         2.8938956892       -6.1123021803        0.5553832082
 C         3.9497544494       -6.1769924270       -3.0773342970
 C         5.3187528400       -6.5545451077       -1.0237847332
 H         0.9973000132        4.0537904927       -1.1700542376
 H        -0.1608835243        4.2967834641        0.0883567889
 H         1.0168833467        3.1761063992        0.4705838150
 H         0.2031204852       -0.6785370885        0.5137166341
 H        -1.2070235339        0.4086358807        0.8555388576
 H        -1.3725214869        1.9305673392       -3.3443368664
 H        -0.0978183983        0.7269883031       -3.7499171799
 H         0.2785473286        2.3918370798       -3.4319891658
 H         1.9381438588        1.0874128841       -0.6191830303
 H         1.6416105358       -0.2413731368       -1.7818146168
 H         2.0927637309        1.3019704301       -2.3518473886
 H        -0.8367564518       -2.6158514966        0.0428659440
 H        -1.5525852761       -1.7303085726        1.5260873136
 H        -6.7065633809       -2.8797778701       -0.4455850317
 H        -5.7655396883       -1.3271934149       -0.2765325771
 H        -2.0065576930       -2.9143286877       -2.1073560483
 H        -3.1087406110       -4.0826365609       -2.5709516385
 H        -2.0721008017       -4.3813097140       -1.2642745342
 H        -4.5880758748       -4.6546075050        0.0700417208
 H        -3.0149404531       -4.2902234606        0.6529925565
 H        -4.3605385828       -3.2638134111        1.0671744328
 H        -8.0374851350       -0.9769952928       -1.5490919239
 H        -7.6240136604       -2.2142325351       -2.7115702805
 H        -6.3395108491        3.2556191814       -3.9161065936
 H        -7.9414419755        3.8862578674       -4.1439024831
 H        -5.5346856505        1.3411592043       -4.9646464962
 H        -7.0177144453        1.1896499040       -5.8890943393
 H        -6.0537098840       -0.2260093850       -5.4935922651
 H        -9.2825176550       -0.0622099721       -3.4755638291
 H        -9.0329474717        0.4700408853       -5.1598157092
 H        -8.4930919901       -1.1675456976       -4.7062530404
 H        -7.1642813427        5.3082381062       -2.3418662688
 H        -7.5350298775        3.8569100935       -1.3019346480
 H        -2.4000240384        4.3380722614        1.3838674318
 H        -3.8609017074        4.7726217720        2.1713881549
 H        -2.9824288135        5.2337707359       -1.4490180530
 H        -3.4910444063        6.2909586015       -0.2664645997
 H        -4.3491838573        6.3676397677       -1.7631539446
 H        -6.6166372548        4.6757030526        0.7532192138
 H        -5.5358037983        6.0979309783        1.0132288422
 H        -6.5021428979        6.1125176110       -0.4328487215
 H        -2.5406068571        2.0026152797        1.9177627874
 H        -4.0591356419        2.3517987661        2.9110939312
 H         1.1463084422        3.3939421958        3.2966383491
 H         0.6289782617        3.5611854371        4.8331990754
 H        -1.2353444675        3.2488775831        6.3384452237
 H        -0.7089683847        1.6224009921        6.5923475001
 H        -2.4028340999        1.9972251400        6.6198490574
 H        -3.3256268213        0.8810930864        4.6395313369
 H        -2.4467610412        0.1926716288        3.3593132061
 H        -1.8340352673       -0.0662041198        4.9947548799
 H         2.4956246227        2.8823858333        5.3765904497
 H         1.9066872058        1.3590960554        5.3771477276
 H         5.1767094491        2.3646098564        1.9027265236
 H         6.6682945252        2.2304014067        2.6577778377
 H         4.0485369615        0.9934490087        6.0285643165
 H         5.4181606370        1.8456366751        5.3903537202
 H         5.6266858472        0.0738914958        5.5670364275
 H         2.8317336243       -0.9340323406        3.1508108432
 H         4.4678331388       -1.4725595139        3.7331270571
 H         3.2097367519       -1.0323627625        4.8408801309
 H         7.5163573142        0.6066729721        1.0732168086
 H         7.0667078240        2.0874133773        0.1966778423
 H         5.2510189935       -2.1044155663        0.9948347344
 H         4.0935454222       -1.7604406428       -0.3358674635
 H         5.3129305848       -1.5981445125       -2.8966178331
 H         5.8232465979        0.0334407760       -3.4588958346
 H         4.4323891946       -0.2809470192       -2.4701325665
 H         8.6300347423       -0.1205622427       -1.1179983784
 H         8.0040648170       -0.3611162155       -2.8199229537
 H         7.5948758090        1.0427509751       -2.1175598592
 H         5.5881357882       -4.3899072787        0.2843763052
 H         3.9071734800       -4.0479916501        0.7180074122
 H         1.4737237126       -6.4047034858       -2.2300707467
 H         1.9134407939       -7.9649302378       -1.6255780312
 H         0.8507266520       -7.0186138867       -0.7122024420
 H         3.1598409303       -5.7792766964       -3.6238296496
 H         3.8499537683       -7.1978161869       -3.2658749314
 H         4.9106681905       -5.9335826545       -3.5473307246
 H         6.2328768851       -6.2263465063       -1.4366247706
 H         5.3747031533       -6.3366299817        0.0323269877
 H         5.1338405419       -7.6405032456       -1.1706855053
 Na       -3.6465233594        1.3080377327       -1.6376777610
