155

 C         0.0184568145        3.3170511371        0.5610841662
 C        -0.6079580557        2.4660425173       -0.5412502083
 C         0.3287814163        1.7958843187       -1.6707711828
 C        -0.2958406248        0.4049316651       -1.9600528207
 C        -0.1477395487       -0.7433120240       -0.8804430496
 C         0.1038824746        2.6599534313       -2.9073742547
 C         1.7452829851        1.7741298639       -1.2640779320
 O        -1.8382414094        2.4059678910       -0.6483327541
 O        -0.8924406193        0.2786659777       -3.0238772324
 C        -0.9968490030       -2.0642306273       -0.9715073608
 C        -2.5549768003       -1.8048611343       -0.9755685201
 C        -3.5533694368       -2.9853085555       -1.0854316551
 C        -4.7178878852       -2.6948589529       -2.1209551173
 C        -5.6708527253       -1.6090975844       -1.6190393630
 O        -3.1107054111       -0.7533232181       -0.7263628812
 O        -4.7419452739       -3.2331619059       -3.2099622894
 C        -2.7904964572       -4.2481768937       -1.5728204232
 C        -4.2169076052       -3.2306194942        0.3923428004
 C        -6.6700421936       -1.1752428878       -2.7059855326
 C        -6.0354906630       -0.0258731574       -3.4475947577
 C        -6.7982592561        0.9809278222       -4.3465263313
 C        -7.8062822888        1.7894515187       -3.4034021124
 C        -7.7921095480        3.3669338545       -3.3965793424
 C        -5.8813219181        1.9090214842       -5.2935031690
 C        -7.6930589357        0.0611311310       -5.2782453768
 O        -4.8502820229        0.2657712762       -3.2790640045
 O        -8.5155493327        1.1628659789       -2.6331059159
 C        -7.3589345332        3.9519168167       -2.0973289073
 C        -5.9808973509        3.6073389764       -1.6554976390
 C        -5.4790058115        4.2242725444       -0.3173373720
 C        -5.1567140696        2.9704734304        0.6992828075
 C        -4.1479818979        3.3022055269        1.8510223498
 O        -5.2051666286        2.9847651255       -2.4500267156
 O        -5.7312873120        1.9316511620        0.4514979314
 C        -4.2201792726        5.0382370154       -0.8158475231
 C        -6.4312721402        5.1892194500        0.3079222298
 C        -3.7211673523        2.1179787930        2.7650610317
 C        -2.3499687078        2.3380694509        3.4533012084
 C        -2.0078542500        1.2646311613        4.5467747194
 C        -0.5968948909        0.6847842083        3.8805194747
 C         0.6683270581        0.8827511512        4.7327591474
 C        -1.8544637587        2.0507099386        5.9242599784
 C        -3.0451524528        0.1194168235        4.6931796917
 O        -1.6991343475        3.3090463265        3.1894280192
 O        -0.6277840761        0.1550994340        2.7991437386
 C         2.0473376856        0.6070975751        4.0432992626
 C         2.8870696952        1.9031585756        4.1752098892
 C         4.4046201097        1.6763976683        4.3496945374
 C         5.0848274388        0.9600383439        3.0835359788
 C         5.6114388802        1.7778786065        1.9676932685
 O         2.3208470336        2.9702587305        4.2230676376
 O         5.1258533588       -0.2309841779        3.0433511434
 C         5.0591869962        3.0674597864        4.6392372088
 C         4.6894233205        0.7508533107        5.5925690877
 C         6.6156113145        1.0583705744        1.0606909059
 C         5.8578532510        0.4005643954       -0.1638156133
 C         6.6621013128       -0.5247349617       -1.0691852960
 C         6.7051105662       -1.8382048103       -0.1757858487
 C         5.4128376915       -2.4262265223        0.2188999260
 C         5.9774242784       -0.7700524943       -2.4674749098
 C         8.0613274775        0.0827257112       -1.4063642769
 O         4.6852598734        0.5480828751       -0.2571927370
 O         7.7591537880       -2.2070381181        0.3069059397
 C         5.3072919298       -3.9623245685        0.0240581231
 C         4.4666485151       -4.2935950396       -1.3151956020
 C         3.9680021193       -5.7448209014       -1.4101560605
 C         2.5401695100       -5.7943427231       -0.5691776302
 C         2.0001384004       -7.1103443583        0.0638888423
 O         4.2171357243       -3.4838897699       -2.1530905262
 O         2.0075984208       -4.7081558815       -0.5048198830
 C         3.5212533396       -6.0825635271       -2.9181853944
 C         5.0354232069       -6.7902741656       -0.9596066422
 H         0.5839298276        4.0254382229       -0.0171644800
 H        -0.7807688009        3.8258926333        1.1316978432
 H         0.7659069754        2.6551982314        1.1364104806
 H         0.9168159606       -1.0750106642       -0.8700809643
 H        -0.2313228495       -0.3385960902        0.0815883678
 H        -0.9893986694        2.8038656456       -3.0849005077
 H         0.6068606316        2.2679900547       -3.8225293144
 H         0.6082855226        3.6180202668       -2.7855648131
 H         2.0353604526        1.2467118402       -0.3405335733
 H         2.3522940311        1.2680545195       -1.9708956837
 H         2.0027092147        2.8071351568       -1.3188969353
 H        -0.8191970029       -2.6877580053       -1.8240410065
 H        -0.7434932524       -2.8100418408       -0.1843839558
 H        -6.0963295363       -2.0450437686       -0.7325950777
 H        -5.0094355556       -0.8117814656       -1.3597959315
 H        -1.9996525059       -3.9544675383       -2.2613424325
 H        -3.3928134538       -5.0126693572       -2.0105961671
 H        -2.3751248642       -4.6548552458       -0.7067628272
 H        -4.4439008492       -4.2687762777        0.3798036641
 H        -3.4926794319       -3.2400801966        1.2205900103
 H        -5.0324514298       -2.4469692781        0.6461201686
 H        -7.6167345049       -0.7985949842       -2.3669287015
 H        -6.9765459574       -1.9960064062       -3.4392016208
 H        -7.2313821445        3.8089489089       -4.2696204279
 H        -8.7508923053        3.7187231520       -3.5013829798
 H        -5.4178562937        2.6793359029       -4.7118110867
 H        -6.5202933118        2.2885644245       -6.2089922033
 H        -5.1245695109        1.2998346828       -5.7544786331
 H        -8.4224133571       -0.5180986857       -4.6344725889
 H        -8.0026421291        0.6966608042       -6.0843439605
 H        -6.9972306959       -0.6664220068       -5.6876214177
 H        -7.3972580680        5.0712038491       -2.0845199496
 H        -8.0007571953        3.5315141637       -1.3384293280
 H        -3.3203705699        3.6628494437        1.2770605188
 H        -4.6652271354        4.0417193275        2.4340332042
 H        -3.2991531376        4.4869093169       -1.0352997855
 H        -3.8734252858        5.7605812453       -0.0976055093
 H        -4.4746626212        5.6001080820       -1.7015285373
 H        -7.3872701107        4.7931641458        0.5106632094
 H        -6.1341777055        5.5200801937        1.2752827260
 H        -6.3917307620        6.0825170648       -0.2781437072
 H        -3.5379927334        1.2645666073        2.0480791036
 H        -4.4905245363        1.6732439873        3.4227526278
 H         0.6166265865        1.9504655745        5.0096685665
 H         0.4160405850        0.1841677905        5.5777831916
 H        -1.3112091099        3.0262799084        5.9124192361
 H        -1.4336491518        1.5227716237        6.7172717674
 H        -2.9348779564        2.2667371409        6.1776062399
 H        -4.0438288265        0.3639759430        5.2227327242
 H        -3.4016678592       -0.3056245856        3.7789250355
 H        -2.6277067781       -0.7896911039        5.1714400809
 H         2.7334990679       -0.1499643601        4.3929777281
 H         1.8448629929        0.4697779990        2.9589461706
 H         4.8105591044        1.8475413560        1.2351318611
 H         6.0067650148        2.6607940535        2.3273752789
 H         4.7335130300        3.5141657428        5.6179234023
 H         4.7601607684        3.9446303884        3.9679736499
 H         6.1650515891        2.9122118266        4.8162299670
 H         4.6733423025       -0.3160733905        5.2940863959
 H         5.7036686229        0.9249958790        6.0590506361
 H         3.8439682663        0.7830322991        6.3524471442
 H         7.1507770233        0.2937574439        1.6235498993
 H         7.4117512640        1.7574432443        0.7050433446
 H         5.2688535462       -2.1969338675        1.2864438397
 H         4.5571853354       -1.8679355902       -0.2124026580
 H         6.5665344052       -1.1541285937       -3.2699187240
 H         5.6817504502        0.2337534847       -2.7757191236
 H         5.0694293060       -1.3337604586       -2.3898399059
 H         8.6829268997        0.2123538659       -0.5698412827
 H         8.6013432415       -0.5747635958       -2.0141449366
 H         8.0726394843        1.0426611649       -1.9780536479
 H         6.2931715002       -4.5193208369       -0.0398536258
 H         4.7790605421       -4.3890800917        0.8897303274
 H         1.1939826673       -7.6189255073       -0.5112567608
 H         2.7177838618       -7.8693924148        0.0056862872
 H         1.6011904036       -6.9131062481        1.0663881532
 H         2.7118309950       -5.3347051772       -3.1925136499
 H         3.1872980861       -7.1227116469       -3.1161375158
 H         4.4074729681       -5.8813662503       -3.5071123151
 H         5.9431196030       -6.8388032068       -1.5332691920
 H         5.1591354477       -6.5508894641        0.0938691596
 H         4.5481995031       -7.7487090716       -0.9899262307
 Na       -3.4818981313        1.3144757383       -1.8574774603
