155

 C        -2.0788533212       -9.8761625754       -0.2458637668
 C        -1.9722654377       -8.5262482066        0.4399079414
 C        -2.7884285540       -7.3639448159       -0.2900184918
 C        -2.7150824593       -5.9349764047        0.2974552486
 C        -2.7487565339       -5.8863887656        1.8524016473
 C        -2.4834318289       -7.1469741856       -1.7054042634
 C        -4.4318834040       -7.4757675622       -0.0791066927
 O        -1.4451626160       -8.3037432433        1.5505485846
 O        -2.4341416073       -5.0085773669       -0.4110208550
 C        -3.1429716500       -4.5011304644        2.4609432452
 C        -4.5686473855       -4.1634920265        1.9597105713
 C        -5.0368113459       -2.6798516340        1.9913345643
 C        -4.0753750995       -1.9429172378        0.9654757624
 C        -4.6671580486       -1.4091469973       -0.2992539641
 O        -5.3243802953       -5.0245542615        1.5782933105
 O        -2.9469640351       -1.8220786500        1.3001729009
 C        -6.6330868778       -2.7530365152        1.6662934803
 C        -4.8107996229       -2.2265476646        3.4105096927
 C        -3.8856245338       -1.7387998000       -1.5881802074
 C        -2.4769187386       -1.0583661158       -1.5890693758
 C        -1.2293965670       -1.7864679549       -2.1772897870
 C        -0.0490916219       -0.8549402124       -2.4629739526
 C         1.3181235951       -1.5322874852       -2.9033152653
 C        -0.7337900844       -2.9078770471       -1.1439080182
 C        -1.5929034235       -2.5436166856       -3.4975397924
 O        -2.4857229311        0.1231045431       -1.2550251685
 O        -0.0209639713        0.3465872137       -2.2017445558
 C         1.6278990518       -0.9165814528       -4.3502428432
 C         1.0324726391       -1.6400989835       -5.6049884501
 C         0.7202024712       -0.5844362782       -6.8101482829
 C        -0.2631911888        0.6023988971       -6.4270336521
 C        -1.7406989384        0.1932740678       -6.1521123779
 O         1.0395377034       -2.8881349523       -5.6772925028
 O         0.0834191307        1.8033033261       -6.4548508501
 C         2.1951003240       -0.1118077032       -7.2307581895
 C         0.1432932063       -1.3177447883       -8.0880096286
 C        -2.6585321932        1.3712273547       -6.1197544242
 C        -2.3609587467        2.3811240456       -4.9968477183
 C        -2.6052208379        3.9590131839       -5.2573934068
 C        -2.2583645352        4.7196785393       -3.9141357508
 C        -1.0861424139        5.7014806361       -3.9374516008
 C        -1.6415422448        4.2093615624       -6.5191353444
 C        -4.0257219628        4.3658700695       -5.7340690757
 O        -1.9139058891        1.9988910923       -3.9339885116
 O        -2.7353103638        4.3273743752       -2.8565499039
 C        -0.6976557750        6.1929535620       -2.5219815773
 C        -0.1866262238        5.0847649033       -1.6308685788
 C         0.0364402840        5.4389989808       -0.0436622261
 C        -0.2936310839        4.1511767696        0.7656414773
 C         0.1497801286        3.9992729236        2.2401354502
 O         0.2644092394        4.0446518481       -2.1229216370
 O        -1.1612575052        3.3729291838        0.3329678875
 C         1.5137302898        5.8414890642        0.1430921652
 C        -0.9516482629        6.5039562443        0.4631616635
 C         1.5738331428        4.1420683982        2.6018124528
 C         2.5693180286        2.9750725595        2.0444362802
 C         3.8727723509        2.8277978404        2.8346453961
 C         3.4149813329        2.2897959260        4.2781985887
 C         3.3684296049        0.8502355635        4.7231406768
 C         4.7549839088        1.6817826140        2.1489047150
 C         4.5894458225        4.1986429354        2.8624511377
 O         2.1093813817        2.1395528093        1.2432991966
 O         3.0430999515        3.1165525094        5.0856074110
 C         3.5505725380        0.7621380874        6.1921835835
 C         5.0087971389        0.4649961006        6.5157621045
 C         5.3184051177       -0.0523862337        7.9602512511
 C         5.1363875894        1.1579199452        9.0016306923
 C         5.7550123968        1.0879678717       10.3776851156
 O         5.8147295952        0.4696759241        5.5743237678
 O         4.3563104622        2.0136665095        8.7628860101
 C         4.4107193741       -1.1451146210        8.5023723467
 C         6.7761004193       -0.5395176569        8.0293143916
 H        -1.5231443466       -9.9613155330       -1.1473430253
 H        -1.8785992483      -10.7785833123        0.3051622421
 H        -3.0716865729      -10.1141905070       -0.6363146028
 H        -3.4489454201       -6.6446369800        2.2214988988
 H        -1.7349449684       -6.1124242113        2.1896012633
 H        -2.7271138321       -6.1595058828       -2.0886354215
 H        -3.0056993147       -7.8449647200       -2.3748533547
 H        -1.3914194326       -7.2292058978       -1.8244694260
 H        -4.4933175749       -8.3080975989        0.6174016253
 H        -4.9013876919       -6.6028962183        0.2669217417
 H        -4.7988121107       -7.8089638499       -1.0285957802
 H        -3.1749557646       -4.6000707021        3.4542719973
 H        -2.4295840940       -3.8261106672        2.0815020817
 H        -5.7204034571       -1.6141888226       -0.4723651002
 H        -4.6468863837       -0.2717202007       -0.2404782719
 H        -7.1404288086       -1.7857610385        1.8245107282
 H        -7.0741032353       -3.5513351391        2.3093446824
 H        -6.8018309662       -3.2246575645        0.6648883699
 H        -3.8270786832       -1.8886620411        3.7065655618
 H        -5.5195684557       -1.4443863332        3.7817461726
 H        -4.9955746039       -3.0914391365        4.0851456943
 H        -4.4371672616       -1.6480471064       -2.5186858368
 H        -3.6918358221       -2.8580257857       -1.5948692909
 H         2.0657333313       -1.2688758244       -2.2231635046
 H         1.1543033789       -2.5801636803       -3.1042160768
 H        -1.2085044731       -3.0265555783       -0.2203823836
 H         0.3151234260       -2.7150798658       -0.9903853923
 H        -0.7618254028       -3.9843519853       -1.4508042485
 H        -2.1169134813       -3.4683286674       -3.1653041653
 H        -2.2562574729       -1.9619797060       -4.0521229332
 H        -0.7583774007       -2.8324264660       -4.0498079932
 H         1.4590726446        0.1855468578       -4.4276292663
 H         2.6727396884       -1.0791793210       -4.4255361123
 H        -2.2167014833       -0.5709293449       -6.8424092237
 H        -1.6468117874       -0.3410512008       -5.2003071403
 H         2.8433345991        0.1843359266       -6.4245520049
 H         2.2608579045        0.5153762314       -8.1095992748
 H         2.8085843481       -0.9798196347       -7.5425240159
 H         0.6451553606       -0.9064134969       -8.8970054834
 H         0.3083336745       -2.3930724303       -8.0905945429
 H        -0.8743164492       -1.1444368372       -8.2533057544
 H        -3.8001276531        1.2142287053       -5.9847058671
 H        -2.5438225984        2.0138825341       -6.9965437281
 H        -0.2235142819        5.2513582133       -4.4236801551
 H        -1.5010189710        6.4481396951       -4.6574065808
 H        -0.5241773206        3.9690673526       -6.3565862233
 H        -1.6972505355        5.3156993804       -6.7971290352
 H        -1.9884481587        3.6315235886       -7.4463225610
 H        -4.0619093078        5.4264604350       -6.0000205797
 H        -4.3395696857        3.6566981966       -6.4021442105
 H        -4.7501382562        4.1973594706       -4.8983570438
 H         0.0561473773        6.9667263304       -2.6308998517
 H        -1.5053039464        6.7051842395       -1.9825343011
 H        -0.3721596285        4.7742556338        2.8495212224
 H        -0.2921921584        3.0949779739        2.7101036339
 H         1.9779284639        4.9196066467        0.1349726658
 H         1.8680050412        6.3740764316        1.0338801312
 H         1.8028807874        6.4542790175       -0.6900634437
 H        -0.8895685727        6.5823218519        1.5580408682
 H        -0.7398846006        7.4435846163        0.0587208352
 H        -1.9916284433        6.1638203948        0.5644570158
 H         1.5637316073        3.9956704850        3.6520893274
 H         2.0135124113        5.1618389826        2.5460008230
 H         2.3694885815        0.4502437103        4.3245178218
 H         4.1865077332        0.2782637839        4.2190624158
 H         4.1420009845        0.7709115023        2.0716700896
 H         5.6790703939        1.5485167659        2.6730099538
 H         4.9428619641        2.1598447630        1.1704561764
 H         5.5726942761        4.1818897681        3.3509980421
 H         4.6545228124        4.4746328574        1.8322225613
 H         3.9573104243        4.9910052622        3.2941364876
 H         3.1369687569        1.4111130917        6.9030570856
 H         3.0460357540       -0.1325703770        6.4578058027
 H         5.2571711430        1.9148444177       10.9307913254
 H         5.5268207257        0.1977152188       10.9189778626
 H         6.8191299373        1.2178892953       10.2995439434
 H         4.7811415341       -1.6266934332        9.3932297260
 H         4.2099856813       -1.9261485872        7.8005976521
 H         3.4366754276       -0.8002077375        8.7691819341
 H         6.9083613998       -0.7363374231        9.1173918040
 H         6.8507591374       -1.4192727821        7.4459822799
 H         7.5397494082        0.2217733884        7.7819054782
 Na       -1.3707431098        2.1354278846       -1.5727961945
