155

 C         0.7638008632        2.7916873873        0.7597038293
 C        -0.0761723941        2.3975163692       -0.4201378260
 C         0.6852294752        2.0312344279       -1.8160268585
 C        -0.1473227258        1.0111366338       -2.6417778954
 C         0.2891096965       -0.4422561408       -2.7045008171
 C         0.7131957552        3.3991135983       -2.6281546145
 C         2.1033103304        1.4581327720       -1.5832479403
 O        -1.2518269537        2.2099526970       -0.2284232798
 O        -1.0509567994        1.2855753565       -3.4159086933
 C        -0.8720241590       -1.5317099195       -2.9799911589
 C        -1.9422468821       -1.4705307317       -1.8928408797
 C        -2.9288017510       -2.7116751396       -1.7201700987
 C        -4.0209423213       -2.6684987751       -2.9238558803
 C        -5.4413848973       -2.2020615057       -2.5648174101
 O        -2.0744421366       -0.5367789111       -1.1386378964
 O        -3.7106732854       -2.9867316179       -4.0845840676
 C        -2.0471857770       -4.0278196261       -2.0904302959
 C        -3.4433055358       -2.8036538486       -0.2545729463
 C        -5.9928372364       -1.3374513233       -3.7283472020
 C        -5.4290631510        0.0527260161       -3.9309481821
 C        -6.0198322614        0.8849195738       -5.1104887742
 C        -7.1173160673        1.7843483491       -4.2925796007
 C        -6.6039204755        3.1976242201       -3.7997221708
 C        -4.8335109706        1.6510092285       -5.7167590767
 C        -6.8754518183        0.0999957080       -6.2322949954
 O        -4.5074014135        0.4801042985       -3.2550468079
 O        -8.1378592401        1.3170132436       -3.8732386345
 C        -6.9653497198        3.3600496644       -2.2608831214
 C        -5.7050939350        3.2158559834       -1.4526371945
 C        -5.7233941917        2.7738335673        0.0567568386
 C        -4.5251477492        1.7942945248        0.4508191446
 C        -3.9647130797        2.1007905558        1.8270277794
 O        -4.5823824311        3.5303859574       -1.9652024484
 O        -4.2166704284        0.8948976341       -0.3215207475
 C        -5.8198775613        4.0373711988        0.9652001872
 C        -6.9727422909        1.9550754643        0.4295277154
 C        -2.9999416789        1.0269970126        2.4044151361
 C        -3.1488962007        0.7954818016        3.9053968576
 C        -2.0888169616       -0.2402380357        4.5766812443
 C        -0.6533979145        0.3132188041        4.3078464783
 C         0.3017793487        0.7534639018        5.4785911982
 C        -2.4387007183       -0.1603574673        6.1045054192
 C        -2.2374862196       -1.6636214064        4.0280061673
 O        -4.0019481240        1.3751984730        4.5694279367
 O        -0.2117294188        0.2740533410        3.2136708684
 C         1.7656100620        0.9040465582        5.0317225683
 C         1.9375948109        2.2359414777        4.3338627287
 C         3.4663392951        2.7362334977        4.3552956910
 C         4.2837066599        1.7247607952        3.4264484305
 C         5.5493402423        2.4252677290        2.8894250453
 O         1.0380368744        2.8291305166        3.8206719956
 O         3.9570360206        0.5597957535        3.3082421782
 C         3.4224504252        4.0807566262        3.5611173894
 C         4.1841014254        2.7876679595        5.6715818721
 C         6.5923317791        1.5240251768        2.1248337036
 C         5.9338529725        1.0975706038        0.6568345047
 C         6.5553405029       -0.0918291500       -0.0643151396
 C         5.9972244903       -1.5186604117        0.3074648164
 C         4.4443186503       -1.5077566415        0.6728406355
 C         6.1741140933        0.1292079261       -1.6669606836
 C         8.1291060128       -0.2015487561        0.0385347051
 O         5.0206759680        1.7416444191        0.1873326799
 O         6.6813666864       -2.4979161451        0.0945259589
 C         3.9399627160       -2.9954454102        0.7563296147
 C         3.5903231910       -3.5455840573       -0.6758785054
 C         3.4483624827       -5.1001083498       -0.7596508937
 C         1.9605641113       -5.4186673233       -0.2973190736
 C         1.6731662617       -6.5212607928        0.6890867480
 O         3.3069521718       -2.8776559525       -1.6579620954
 O         1.0094669355       -4.8203560107       -0.8164300997
 C         3.3900381619       -5.5651772913       -2.2685031834
 C         4.5426192772       -6.0078736319       -0.0582576256
 H         1.7864768735        2.5577421109        0.4550355569
 H         0.7047579601        3.8911668082        0.8009333461
 H         0.4965371281        2.2773246005        1.7508409677
 H         0.9858584606       -0.6139917804       -3.4750388930
 H         0.9199002817       -0.6788634012       -1.7711392968
 H        -0.3189378072        3.8022020397       -2.6351957923
 H         1.1983651633        3.3220492408       -3.5253260394
 H         1.2632982054        4.1452475908       -2.1660415961
 H         1.9233566984        0.7827173123       -0.6971128371
 H         2.3887489927        0.9147340631       -2.4505569217
 H         2.9194415274        2.1246122163       -1.2640973970
 H        -1.3379156396       -1.1416278063       -3.8891797685
 H        -0.3882882022       -2.5498200032       -2.9980350160
 H        -6.0929904211       -2.9858262900       -2.4017420345
 H        -5.5707542495       -1.6223176865       -1.6578057010
 H        -1.7561400370       -4.0589043237       -3.1302096084
 H        -2.6294526255       -4.9168751820       -1.9627123745
 H        -1.2191664840       -4.1811171404       -1.4666542453
 H        -4.2057217603       -3.6318571572       -0.2564901883
 H        -2.6899404743       -3.2278805836        0.3890337414
 H        -3.6908911849       -1.8441366802        0.1700766156
 H        -7.0682188276       -1.1939222821       -3.5338502932
 H        -5.9028687404       -1.9292563125       -4.6069834931
 H        -5.5636139229        3.2973969243       -3.8594478988
 H        -7.0029345468        4.0929191432       -4.3324563756
 H        -4.0731037038        1.8922054466       -4.9908338851
 H        -5.1850448881        2.6346681870       -6.2539158218
 H        -4.3714982690        0.9840922572       -6.3765502772
 H        -7.3725050394       -0.7333628215       -5.8041946738
 H        -7.6626859950        0.7682702754       -6.6012711345
 H        -6.2747314327       -0.4138847393       -6.9877882878
 H        -7.2952091479        4.4055143579       -2.0850123479
 H        -7.6854270539        2.6535407444       -1.9557351265
 H        -3.4108904862        3.0232326492        1.6384603034
 H        -4.7282972307        2.3865686289        2.4955940248
 H        -4.8371946258        4.3336078539        1.2854657436
 H        -6.4884325143        3.8223573605        1.8222926167
 H        -6.3461814601        4.7982229185        0.3825371343
 H        -7.1438640371        1.1388894734       -0.3105415701
 H        -6.7846184482        1.3928860748        1.3801438779
 H        -7.8893492682        2.5917396338        0.5903285527
 H        -1.9459391246        1.4147185840        2.2122706622
 H        -2.8698480584        0.0228132936        1.9230220787
 H        -0.1439740726        1.6545674461        5.7706178090
 H         0.2402922329        0.0883331939        6.3759852647
 H        -2.6401097238        0.8900685002        6.2437458904
 H        -1.5525983392       -0.3931801469        6.7219613509
 H        -3.2923536840       -0.7185037610        6.3397608350
 H        -3.2423645159       -1.9806271033        4.2636054669
 H        -2.1690638072       -1.7554885273        2.9106773192
 H        -1.4635663569       -2.3069678116        4.5202698424
 H         2.4205508485        0.8866933742        5.8961644038
 H         2.1879943674        0.0980080508        4.4382972253
 H         5.2729392990        3.2219048279        2.2707709603
 H         5.9733148388        3.0380984671        3.5917764610
 H         2.9166268421        4.8454873545        4.2144667424
 H         2.9839592235        3.8338960444        2.5461320160
 H         4.4556364713        4.4625048162        3.3093322470
 H         4.3167186859        1.8440753878        6.0417946153
 H         5.1129495052        3.3544274126        5.6072086273
 H         3.5582385212        3.3553117276        6.3453396760
 H         6.9527445263        0.6224329905        2.6657256654
 H         7.5550563147        1.9979292375        1.8821559359
 H         4.3469087193       -0.9211957176        1.6681022151
 H         3.8934937114       -0.9784984852       -0.0811562706
 H         6.5576324209       -0.8106597156       -2.1280288299
 H         6.7067850387        1.0281447105       -1.9468061899
 H         5.0830566005        0.1795414257       -1.7978480435
 H         8.2996815904       -0.4011877727        1.1117508335
 H         8.5229664040       -1.0765721052       -0.4519705724
 H         8.6488474292        0.6328805521       -0.3661963979
 H         4.6743184724       -3.6515469487        1.1084953928
 H         3.1092695646       -3.1916469854        1.4854138000
 H         2.3537759734       -7.2737488757        0.5730186007
 H         1.9986896248       -6.1897603643        1.6774042699
 H         0.6401904944       -6.9107177853        0.7287610951
 H         2.7717191527       -4.9511141826       -2.8944497493
 H         2.8591516703       -6.4651134677       -2.1876801301
 H         4.4378563619       -5.6856262508       -2.5818116868
 H         5.5198602664       -5.6949643567       -0.4201133729
 H         4.7047971366       -5.7572972132        0.9925147543
 H         4.4091845515       -7.0949084169       -0.1357703751
 Na       -2.8841601932        1.6627471351       -2.1300616593
