155

 C         1.6327026311        2.8236155075        0.1959887930
 C         0.6733669858        2.4134672107       -0.9274927090
 C         1.1945719010        2.0230728976       -2.3503748467
 C         0.2743141800        0.7635490842       -2.8584039781
 C         0.7745976302       -0.5869660323       -2.6581667220
 C         0.9178014252        3.2146273385       -3.2716632331
 C         2.7874106166        1.6161138905       -2.3208337434
 O        -0.5172441397        2.3337548234       -0.6648466357
 O        -0.7240874194        1.0969746178       -3.4241294453
 C        -0.1223280436       -1.8439358853       -3.0289474618
 C        -1.4037186682       -2.0752445823       -2.1377048959
 C        -2.3404968175       -3.2723315801       -2.5034921710
 C        -3.3751774939       -2.6701139863       -3.4647116172
 C        -4.4181709466       -1.7166645180       -2.7534962534
 O        -1.7327964109       -1.3248457808       -1.2958281894
 O        -3.3890286244       -2.9254444610       -4.7118147440
 C        -1.5826225450       -4.3343687181       -3.3725566760
 C        -2.8837769319       -3.8452314961       -1.2405867804
 C        -5.2301118279       -0.9710975554       -3.8393162629
 C        -4.4204197039        0.2710739473       -4.2368382174
 C        -5.3991069284        1.2183854160       -5.1524419616
 C        -6.3982246539        1.7424025915       -3.9705220239
 C        -6.3752243822        3.2262386989       -3.5150989705
 C        -4.6805406460        2.4094650065       -5.8371273275
 C        -6.2016692136        0.4400338110       -6.2134710486
 O        -3.3617791381        0.5746124816       -3.7646075986
 O        -7.1321408242        0.9653489844       -3.4029884221
 C        -6.7612604166        3.4254877723       -1.9604758222
 C        -5.6408817839        2.7370320024       -1.1539132234
 C        -5.9157288365        2.1066191035        0.2766162705
 C        -4.6971483387        1.3719806754        0.8947397633
 C        -4.7189679703        1.3372956637        2.4033512850
 O        -4.5257258526        2.6756931439       -1.6051452587
 O        -3.8419846269        0.8125131423        0.2495577964
 C        -6.4016124705        3.3948301953        1.0953510764
 C        -7.0076389003        0.9113509710        0.0438458748
 C        -3.2824819872        0.9555567341        2.9284968734
 C        -3.2610262219        0.0942379287        4.2093647851
 C        -2.0733424646       -0.9408880506        4.3167440563
 C        -0.6726813094       -0.3109994815        3.9774909292
 C        -0.5336233220        1.0858888269        4.5884910451
 C        -1.9987243020       -1.4662325387        5.7631695881
 C        -2.3270912724       -2.1149108457        3.4175265359
 O        -4.1935273093        0.1270331991        5.0106024541
 O         0.1845469670       -0.8786850319        3.3744232155
 C         0.9337610151        1.6175271351        4.9914612212
 C         1.3502670929        3.0277301813        4.4306276274
 C         2.8975498559        3.3620556961        4.3406434603
 C         3.5084283553        2.3999732066        3.2620113066
 C         5.0817364000        2.6274677909        3.1129771628
 O         0.5931479910        3.7778834880        3.8948095271
 O         2.8477567230        1.4743060863        2.7984514195
 C         3.0437052549        4.9009711557        4.1006988898
 C         3.4452802016        3.1051797668        5.7837406951
 C         5.8770826694        1.4601080167        2.4459692784
 C         5.6772794256        1.3590369333        0.9363158041
 C         6.0338138889       -0.0394658641        0.2875170755
 C         5.1218502704       -1.1257149495        0.8954487410
 C         3.6150379804       -0.9259437983        0.8176139894
 C         6.0436759741        0.1795981247       -1.2772513710
 C         7.5644377148       -0.4312192773        0.7179028606
 O         5.1400441750        2.2341348739        0.2954610646
 O         5.6686789800       -2.1074202589        1.3592945517
 C         2.9239996754       -2.2752358160        0.8850956226
 C         2.9325277493       -2.9315277194       -0.5860002328
 C         2.7814784696       -4.4499895750       -0.6513638000
 C         1.4991402438       -5.0640201469        0.1071493113
 C         1.0971502991       -6.5288400857       -0.1383054618
 O         2.7451807154       -2.2857442284       -1.6306969970
 O         0.9352965070       -4.3836805568        0.9530264668
 C         2.8753615368       -4.9492857496       -2.1247748047
 C         4.0363092378       -4.9961618692        0.1257130041
 H         2.3476224361        2.0002895720        0.3998460044
 H         2.0119262519        3.8346059749        0.1441483057
 H         0.9834364758        2.7276527882        1.1790661754
 H         1.8028397475       -0.7014274995       -3.1005736733
 H         1.0699290194       -0.6011730439       -1.6793175825
 H        -0.1214781565        3.1049639548       -3.5824404596
 H         1.2974474467        3.1403805413       -4.2136661649
 H         1.1654277308        4.1363395043       -2.8374539632
 H         3.1078983600        0.7049125195       -1.7722337927
 H         3.1934735964        1.3975549073       -3.2834230769
 H         3.2798184419        2.5733639542       -2.0810653617
 H        -0.4993509962       -1.8160718234       -4.1254342717
 H         0.5325860637       -2.7632445349       -2.9530604550
 H        -5.0070195231       -2.2526667626       -2.0337794611
 H        -3.9455252042       -0.9115661532       -2.2365898333
 H        -1.3059202526       -3.8520651634       -4.3154416304
 H        -2.1697881401       -5.2274048041       -3.5560681510
 H        -0.6011872386       -4.5680121499       -2.9329316473
 H        -3.8440711114       -4.3918199492       -1.4199068877
 H        -2.0887653922       -4.4504535502       -0.7715534997
 H        -3.1218850770       -3.0232551060       -0.6582869648
 H        -6.1940561116       -0.7385396463       -3.4854504291
 H        -5.3899213735       -1.5801825946       -4.6967075140
 H        -5.4704077869        3.6957579815       -3.6972509568
 H        -7.1303535784        3.8994328071       -4.0986790984
 H        -4.2285104015        2.9699659831       -5.0399723558
 H        -5.4211768339        3.1382953070       -6.3326267112
 H        -3.9213226255        2.2847589852       -6.4820637329
 H        -7.1198645247        0.0380214537       -5.8368821785
 H        -6.3596307835        0.9981679474       -7.1473191706
 H        -5.6799319557       -0.3794557098       -6.6403245730
 H        -6.8559697188        4.4437278135       -1.6694433431
 H        -7.7233604109        2.9170953833       -1.8034351439
 H        -4.8908480157        2.2624549450        2.8915749441
 H        -5.2709416500        0.5800257263        2.9370109290
 H        -5.6187193200        4.1181754422        0.9568255591
 H        -6.5657776405        3.1708280796        2.1961581425
 H        -7.3563415366        3.6136793672        0.6452092154
 H        -6.4651721572        0.2926243615       -0.7317085169
 H        -7.1320419826        0.2175234355        0.9530165105
 H        -7.9977248761        1.2266001835       -0.2932717384
 H        -2.7562438711        1.8917454562        3.2513744448
 H        -2.7322676147        0.4246197183        2.1966109171
 H        -0.7871489907        1.6206276285        3.6606444434
 H        -1.3328570730        1.2350061412        5.3123757276
 H        -1.5318963389       -0.7716718808        6.4013072519
 H        -1.5220164888       -2.4717415891        5.8556500770
 H        -3.0356944249       -1.5844733186        6.0638428373
 H        -3.2653689225       -2.5337198856        3.7107410093
 H        -2.3419467385       -1.7010382279        2.3570491293
 H        -1.5288508612       -2.8346636152        3.4632170850
 H         1.1299362410        1.5460612240        6.0557587801
 H         1.5925604283        1.0141696479        4.3728813513
 H         5.1764221578        3.5903116318        2.5876442537
 H         5.5366446306        2.6698380520        4.0710259976
 H         2.3543550644        5.5792814327        4.6304041508
 H         2.6669386514        5.1578351545        3.0897938942
 H         4.1031291326        5.1999506483        4.2755201149
 H         3.6686984279        2.1467136611        5.9892336489
 H         4.2918140362        3.7554036609        5.9509790071
 H         2.6718175608        3.3738362964        6.4506121249
 H         5.4566864948        0.5618068852        2.8815008495
 H         6.9727006322        1.6119212455        2.6132750379
 H         3.2726538804       -0.2796365222        1.5871472607
 H         3.5021937705       -0.2756723762       -0.1535822602
 H         6.4458203423       -0.7385523121       -1.7039630429
 H         6.6971296592        1.0349755537       -1.5436570695
 H         4.9971838092        0.3728100980       -1.5065694155
 H         7.4944705813       -0.9602119815        1.6943953745
 H         7.9476325688       -1.2424485619        0.0590259294
 H         8.1483138572        0.4089647291        0.8540255226
 H         3.4847110578       -2.8992507619        1.5603896281
 H         1.7947282367       -2.2161654440        1.2208057521
 H         0.0847141409       -6.5732235720       -0.2801157257
 H         1.6601209244       -6.9890735291       -0.9815855882
 H         1.2208429730       -7.0143909456        0.8122056704
 H         1.9673803113       -4.7706819277       -2.5788023811
 H         3.2121092968       -5.9861047215       -2.1004056642
 H         3.5752048287       -4.4160612606       -2.7729274753
 H         4.9925634428       -4.4293579942       -0.1284644646
 H         3.7974524277       -5.1080826460        1.1622306862
 H         4.3433557865       -5.9707984903       -0.1880832476
 Na       -2.3524366455        1.4969271961       -1.8322222233
