155

 C         3.8549413303       -1.3865045162       10.6364871436
 C         4.1558800899        0.1748892474       10.2243496552
 C         5.5423725518        0.4503868671        9.4201442697
 C         5.3281449776       -0.3355634167        8.0915630183
 C         4.5395913092        0.4160706765        6.9427138457
 C         5.5768360445        2.0267851484        9.2789879658
 C         6.7306667944        0.0180194098       10.2269441792
 O         3.4249341221        1.0795203078       10.4935826053
 O         5.6553785526       -1.4725927088        8.0174349932
 C         4.2563633102       -0.5814693175        5.7825946757
 C         4.2673431439        0.2360999088        4.4834493315
 C         3.3733761277       -0.4679851152        3.4073460253
 C         1.8558407146       -0.7245560887        3.8236912059
 C         1.1659890535       -2.1805818199        3.5264542816
 O         4.7149421982        1.3633976991        4.2581873845
 O         1.2071084172        0.1617111132        4.3117200537
 C         3.2987948382        0.5300897704        2.2709408117
 C         4.2459905385       -1.6890905999        2.9444243098
 C        -0.2929350233       -2.2970263017        3.9764141085
 C        -1.2152842798       -2.4176424633        2.7268035095
 C        -2.6954559216       -2.8132594735        2.7914590090
 C        -3.5919262284       -1.5810135919        2.5604153870
 C        -4.5214961913       -1.0767702416        3.6870531467
 C        -3.0505674522       -3.8617246946        1.7542696815
 C        -2.9325276035       -3.5957671573        4.2100353959
 O        -0.6839068826       -2.0942514024        1.6625642489
 O        -3.5695052626       -1.0559672174        1.4459413178
 C        -4.5947921070        0.4644298641        3.8575853818
 C        -3.5736302930        1.0871722130        4.8323277448
 C        -3.6003964587        2.6331456020        5.1211585601
 C        -2.8947604905        3.2694050899        3.8660267584
 C        -1.4097821359        3.1171630046        3.7737182414
 O        -2.6929834097        0.4201392530        5.3400484947
 O        -3.5922150323        3.8650348105        3.0542563823
 C        -5.0463310583        3.0149080949        5.2882889276
 C        -2.8319437227        2.7935257721        6.4402211815
 C        -0.8041588821        3.6183055968        2.4575529038
 C        -1.0317336406        2.5321507458        1.4819007600
 C        -0.2077247525        2.7685547457        0.0848923551
 C        -0.1677487234        1.3747537546       -0.7566060560
 C        -0.7691174828        1.2201790928       -2.1866532337
 C        -0.9301957906        3.7997925907       -0.7242561969
 C         1.2016214971        3.2392356606        0.2437055742
 O        -1.5799679021        1.4587754231        1.7145713673
 O         0.4299762163        0.4495372615       -0.2797777782
 C        -0.5715151062       -0.2010895206       -2.7419610886
 C        -1.7458819346       -1.1229789562       -2.7500252701
 C        -2.7592769172       -1.1066964710       -4.1148263085
 C        -2.3104879878       -2.0220940805       -5.2464174314
 C        -3.1851299394       -3.1429225355       -5.8911978185
 O        -2.2063234982       -1.3621670147       -1.6657364716
 O        -1.2193045149       -1.7302907271       -5.7274715657
 C        -4.0996433788       -1.5341441566       -3.6249315296
 C        -2.7485271033        0.3179710567       -4.7277427604
 C        -4.0700606614       -2.6117767466       -6.9800258371
 C        -3.5343749573       -2.5860963024       -8.4637733700
 C        -3.7607433571       -1.2699670709       -9.2888163068
 C        -2.5090292821       -0.4380083372       -8.8111570576
 C        -1.1731496624       -0.9785022788       -9.4078103862
 C        -3.8616913694       -1.6778758035      -10.7559661560
 C        -4.9783786871       -0.4430260926       -8.9593528042
 O        -3.0359888457       -3.5738158130       -8.9617208308
 O        -2.6674562025        0.4918264399       -8.0831621988
 C         0.1137917344       -0.6161334645       -8.6424423422
 C         1.0154232420        0.1018052838       -9.5904490545
 C         2.3275102047        0.7143797863       -8.8872211983
 C         1.9164542951        1.9024579294       -7.9583654567
 C         2.3804915997        3.2812454662       -8.2956292939
 O         0.8642560020        0.2175403521      -10.7729842031
 O         1.2961806175        1.7260943171       -6.9367722982
 C         2.9366327353       -0.3592934420       -7.9151126022
 C         3.3281794713        1.0163449582      -10.0122426131
 H         3.2823585922       -1.4974899487       11.5373644126
 H         3.2780803025       -2.0473596646        9.8820173317
 H         4.8281150633       -1.8030687752       10.8364221638
 H         3.6421678590        0.8535708483        7.3708581075
 H         5.0596824779        1.2691303639        6.6415158241
 H         5.7746341396        2.4332929263       10.2682938875
 H         4.6647097550        2.4974136517        8.9060539053
 H         6.4240402459        2.3149545632        8.7358615637
 H         6.7746311277       -1.1364889356       10.4488146551
 H         7.6435055995        0.2934826714        9.6966630715
 H         6.9236148764        0.4671037047       11.1314615237
 H         5.0941022188       -1.3455958523        5.9617893262
 H         3.3510357322       -1.0012507464        5.9759627100
 H         1.3350314658       -2.4522180388        2.4527923045
 H         1.6279169058       -2.9459495589        4.0737865120
 H         2.8912301318        1.4558027646        2.6810952665
 H         2.6108373828        0.0370923694        1.5755896459
 H         4.2607953258        0.7846158453        1.9084390744
 H         3.9533820314       -2.4808715531        3.5691052944
 H         4.1321808139       -1.9546868472        1.9440108916
 H         5.3028895210       -1.5629963713        3.0574184105
 H        -0.6823464314       -1.4581171157        4.4937841087
 H        -0.4259863323       -3.1058321435        4.6576532131
 H        -5.6163171023       -1.4646196413        3.5175949589
 H        -4.2482467224       -1.5189580450        4.6046997624
 H        -2.5274400779       -3.6341187278        0.8323803035
 H        -4.1728487810       -3.8903120250        1.5159185359
 H        -2.8660035937       -4.9049651530        1.9985551007
 H        -2.5056500730       -4.6021789530        4.2093496028
 H        -2.6001466659       -3.0579186521        5.1330275005
 H        -3.9747174200       -3.9291214178        4.1710269995
 H        -4.2850238263        0.8776610245        2.8898337670
 H        -5.5897382555        0.8547285621        3.9512381560
 H        -0.9520068880        3.4598704779        4.7126742549
 H        -1.2090841719        2.0571612305        3.7976472710
 H        -5.3853658859        2.6303488694        6.2241937070
 H        -5.6366932363        2.8025326571        4.3721488077
 H        -5.0790821289        4.1497385230        5.3918096175
 H        -3.4373606023        3.5687538899        7.0038597520
 H        -2.8533166047        1.8711111840        6.9904982594
 H        -1.7861738313        2.9750972193        6.3378668730
 H         0.3250608170        3.7800513326        2.5790672790
 H        -1.1714372720        4.5357659344        2.1680824970
 H        -1.8009299526        1.5535560228       -2.2487084968
 H        -0.3422610695        1.9703468014       -2.8675988886
 H        -1.1568704552        4.7749370994       -0.3109993457
 H        -1.8701140026        3.4035345413       -1.0827985975
 H        -0.2842444240        4.0036914286       -1.5853103433
 H         1.2558581349        4.3040501040        0.5376474370
 H         1.8583803103        2.6598359421        0.8624375794
 H         1.7141538879        3.2778183250       -0.6809240134
 H        -0.1721146327       -0.1109926787       -3.7705419021
 H         0.1201968299       -0.7430554926       -2.0635122043
 H        -2.5503493381       -3.8624117424       -6.3518436985
 H        -3.7732893124       -3.6136145088       -5.0442322552
 H        -4.7536285441       -1.7076972976       -4.4663633306
 H        -4.5007853822       -0.6442075540       -3.0334300684
 H        -3.9463445331       -2.4454888674       -3.1222702899
 H        -3.0708716607        1.0620773439       -4.0043216905
 H        -1.7941861134        0.6115925310       -5.1557597384
 H        -3.3676741008        0.2847342418       -5.6076890045
 H        -4.5286167834       -1.6559701366       -6.8005549649
 H        -4.9710950211       -3.3225488644       -6.9676634302
 H        -1.3113975020       -2.0201581571       -9.6705660304
 H        -1.0744676975       -0.5819045320      -10.4887710869
 H        -3.1035538455       -1.2282107564      -11.3471033472
 H        -4.7637784584       -1.3728708194      -11.2496372496
 H        -3.7415111448       -2.7424338575      -10.8941563196
 H        -5.9723759165       -0.9293051795       -8.9803664949
 H        -4.8013318022        0.0899536719       -8.0622701124
 H        -4.9959204565        0.3794514274       -9.7457293241
 H        -0.0291052712       -0.1581075166       -7.6068244506
 H         0.6918406301       -1.5359990108       -8.5139252898
 H         2.8903688243        3.3872793901       -9.2561241098
 H         1.6226687540        4.0186401850       -8.1186686866
 H         3.1259818092        3.5881975891       -7.5107885317
 H         2.8595197973       -1.3452443960       -8.3663837656
 H         2.3839981652       -0.3889458145       -7.0042574152
 H         4.0172962183       -0.2251315464       -7.7358431760
 H         3.7181803366        0.0959787610      -10.5127902631
 H         3.1243275634        1.9025041389      -10.6325723094
 H         4.1958754916        1.4982316366       -9.5362212105
 Na       -1.6037861259       -0.7680733323        0.3838931176
