155

 C         6.1751481343       -7.9091877629       -2.5984853114
 C         5.2060471727       -8.8702973691       -1.8712800891
 C         4.1380083921       -8.1592208214       -0.9985725180
 C         3.0161528388       -7.5674077160       -1.9610928782
 C         2.1954286622       -8.4677807715       -2.8762623577
 C         3.4547297000       -9.1815171903       -0.1090295939
 C         4.7345579859       -6.9743176719       -0.0784030758
 O         5.1905345244      -10.0706558909       -2.0085829892
 O         2.7110504225       -6.4269047058       -1.8548183679
 C         1.4159017938       -7.6705837251       -3.9906768351
 C         2.3590914411       -6.6708151802       -4.6986841702
 C         1.9299367884       -5.4230797834       -5.5433375412
 C         2.0541694449       -4.0180475014       -4.8497078612
 C         1.3623862698       -4.0014721870       -3.4137798487
 O         3.5150573317       -6.9152044866       -4.4971601543
 O         2.5929905819       -3.0603218321       -5.3137330818
 C         2.8876763021       -5.4596427514       -6.8264970145
 C         0.4402426787       -5.5053244683       -5.9709539776
 C         1.7656070328       -2.6548645406       -2.6231823784
 C         0.5114023925       -1.6697187469       -2.4954233929
 C         0.5612611941       -0.1304808876       -3.0150424607
 C         0.3592966534        0.7808219795       -1.5666077140
 C         1.4605118764        0.9020527498       -0.5379809320
 C         1.9461228250        0.4536517469       -3.7403667503
 C        -0.6113642184        0.2396041470       -3.9619364870
 O        -0.4231262348       -1.9870574743       -1.8034688070
 O        -0.7270928611        1.3500888151       -1.4180420066
 C         2.1760134118       -0.3893185769       -0.1824553992
 C         2.6106231536       -0.5539163297        1.3678199217
 C         2.1748529704       -1.8572190172        2.0827580167
 C         0.6231232815       -1.6410063622        2.4331416822
 C         0.2437757552       -0.9053471698        3.7019714828
 O         3.1838389010        0.3771502297        1.9648747363
 O        -0.1117591774       -2.0069504168        1.5291474819
 C         2.3163511405       -3.1023054615        1.1296254168
 C         3.0093228895       -2.0556473456        3.3328458827
 C        -1.2316192602       -0.6326285030        3.7945269793
 C        -1.7839421005        0.1214011716        2.5065860285
 C        -3.3092354792        0.2149585110        2.3866697271
 C        -3.7620587931        1.8191684019        2.6014205820
 C        -4.5324540804        2.2376068946        3.8537542625
 C        -3.7964632937        0.0041167821        0.9665122934
 C        -4.0213354097       -0.6765221409        3.3255008106
 O        -1.0901521439        0.6256188229        1.6655578069
 O        -3.4644560599        2.7210101723        1.7823674968
 C        -3.9303911613        3.4265473743        4.5954847179
 C        -2.6182831538        3.1690538819        5.3119961445
 C        -2.0087244268        4.3430566096        6.0529813287
 C        -1.1716886805        5.0116681505        4.8885278685
 C         0.2498219083        4.4437943691        4.5479734936
 O        -1.9745252791        2.1670065263        5.2369250636
 O        -1.6309350002        5.9130889463        4.1981909750
 C        -3.0869042180        5.4125529344        6.4339835273
 C        -1.1308750615        3.9052430861        7.3255322485
 C         0.5736228254        4.9800058596        3.1251030914
 C        -0.3377958188        4.6611529575        1.9907336857
 C        -0.7063045473        5.8495301749        0.9725974216
 C        -1.9038127837        5.3794174518        0.0080490581
 C        -3.2640917438        5.9112698063        0.3432924618
 C        -0.9353518719        7.2228530090        1.8182638781
 C         0.5354738705        6.1024962506       -0.0386095270
 O        -0.7693560363        3.5358738572        1.7522073496
 O        -1.7402805336        4.6875549577       -0.9741293775
 C        -4.2607021106        5.7675789917       -0.7186728333
 C        -4.6603090884        4.3527697647       -1.2880658812
 C        -5.7962174873        4.2257979814       -2.3057558338
 C        -5.6120468715        5.1944840212       -3.5024785248
 C        -6.8388979950        5.6822513279       -4.3655259179
 O        -4.2152576715        3.3155552587       -0.7842281899
 O        -4.4423323473        5.5163116811       -3.8020773498
 C        -5.8805478854        2.7633262669       -2.9682829214
 C        -7.0786333001        4.5473713133       -1.5074121323
 H         5.6554101783       -7.0853799727       -3.0296093999
 H         6.9129418656       -7.6343182609       -1.8489252271
 H         6.6144941530       -8.3995820809       -3.4638672876
 H         2.7348282668       -9.3192038564       -3.3373145648
 H         1.4599339081       -8.9164434331       -2.1582906989
 H         4.1720453336       -9.4210172112        0.6571810763
 H         3.3101087990      -10.1998879017       -0.5806739366
 H         2.5451844425       -8.6629016855        0.2259241654
 H         4.0750111710       -6.5551515161        0.5651576632
 H         5.4011262922       -7.4669220030        0.6042948663
 H         5.2218013694       -6.1202026818       -0.5252181143
 H         0.9376791856       -8.3807322726       -4.6853890167
 H         0.6612571437       -7.1203762341       -3.4829501881
 H         0.2559985322       -3.9981884537       -3.3832897419
 H         1.7358452409       -4.8608314402       -2.9444516647
 H         3.9050157413       -5.2322361500       -6.4243196841
 H         2.6029418090       -4.6891109991       -7.4762808310
 H         2.9324696460       -6.4385835089       -7.2724372324
 H         0.2045716778       -4.6226354389       -6.5750949653
 H         0.2697779945       -6.3996403452       -6.5496127716
 H        -0.2720932723       -5.6544878474       -5.1493791296
 H         2.6360975146       -2.0776455676       -2.9753620748
 H         1.9021924343       -2.9394462915       -1.5845114023
 H         2.1171003003        1.7365553803       -0.7916574909
 H         0.9451699126        1.3082996863        0.3692269789
 H         2.7955153198        0.1926031988       -3.0812972425
 H         1.7586708596        1.5460035188       -3.6588952036
 H         2.0314249837        0.0892056268       -4.7764290035
 H        -0.5119385065        1.3491979873       -4.0770318744
 H        -0.3818771460       -0.1855201574       -4.9585745361
 H        -1.6132003144       -0.0066243378       -3.5877377707
 H         1.4124474138       -1.1285482201       -0.4667528829
 H         3.0737017141       -0.3703532541       -0.8420105379
 H         0.5101467707       -1.4195802201        4.6376413731
 H         0.8011974594       -0.0507297485        3.7773289943
 H         3.3682631029       -3.2827062358        0.8730990849
 H         1.7596230845       -2.9821347047        0.2243569218
 H         1.9610147117       -3.9393315505        1.6623758623
 H         2.7971906072       -1.2731216734        4.0515509367
 H         2.8985553712       -3.0546354960        3.7762049277
 H         4.0668309748       -2.0172146812        3.0976208692
 H        -1.5162623557       -0.1765178414        4.7815348680
 H        -1.7523928279       -1.6456496349        3.7541683492
 H        -5.6021226682        2.4739184635        3.6494251255
 H        -4.4350215033        1.4306169310        4.6362837478
 H        -3.3094050729        0.7045389622        0.2899203946
 H        -4.8992059406        0.0851049081        1.0498712747
 H        -3.4454812146       -0.9963691396        0.7473855347
 H        -5.0392317525       -0.8656492486        3.0414548468
 H        -3.5668883553       -1.6787457405        3.3984530247
 H        -4.0476630671       -0.3703741470        4.3699469528
 H        -3.8782059513        4.3140959712        3.9368502651
 H        -4.6621276425        3.6063573701        5.4054610550
 H         1.0558222941        4.7437763057        5.2591521236
 H         0.2962255145        3.3205647853        4.6542109388
 H        -2.5841894807        6.0988483169        7.1334911240
 H        -3.8597431748        4.9084502639        6.9756199359
 H        -3.3551699177        6.0416849059        5.5963317564
 H         0.0080930364        4.0586576277        7.1584052703
 H        -1.4942818657        4.3614424723        8.1945960580
 H        -1.2670234715        2.8402008113        7.5210779598
 H         1.5444813944        4.5976402141        2.8554671071
 H         0.6454854498        6.0312884703        3.3719604528
 H        -3.7065513339        5.3466444914        1.2238918258
 H        -3.2798901882        6.9481070537        0.5927436032
 H        -1.2839498148        8.0457136158        1.1844756393
 H         0.0038420022        7.6502051196        2.1650928677
 H        -1.7157933361        7.0475783676        2.5275957573
 H         1.4316246455        5.5970572347        0.4930296295
 H         0.2753772158        5.6496878549       -1.0276564983
 H         0.5599188042        7.1392313008       -0.1525379202
 H        -5.0988971315        6.2287324636       -0.3105450389
 H        -4.1346577168        6.4837079845       -1.5496923223
 H        -7.4120829468        4.7847367583       -4.4046046791
 H        -7.3063211420        6.5949927333       -3.9967214091
 H        -6.3653412546        5.9092634362       -5.2951490432
 H        -4.8835747189        2.4248807558       -3.2443748311
 H        -6.4708586679        2.8168385953       -3.8925897964
 H        -6.2546998839        2.0479458260       -2.2727657887
 H        -7.9304436036        4.5224314643       -2.1777136072
 H        -7.2892790673        3.6962887072       -0.8373855684
 H        -7.0271266960        5.4115443640       -0.9890791673
 Na       -1.9444456553        2.5296875312        0.1883776268
