155

 C         6.1286139153       -7.9823188480       -2.7282376688
 C         5.0656127126       -8.7918166672       -2.0505032355
 C         4.0030308084       -8.1136029142       -0.9449602813
 C         2.9035051793       -7.5895038991       -1.8942391425
 C         2.1502798281       -8.4700167416       -2.9234597352
 C         3.5572848707       -9.1389884911        0.0584283200
 C         4.6037998133       -6.9058615150       -0.3408919682
 O         5.0821481887      -10.0196761963       -2.0407716775
 O         2.7580836823       -6.3480699562       -1.9943469973
 C         1.5981827852       -7.5955191254       -4.0402531196
 C         2.5349372415       -6.6075812423       -4.6517837959
 C         2.0623789456       -5.4261358694       -5.5109924515
 C         2.0516949408       -4.0276069561       -4.7459751845
 C         1.4801417791       -3.8186135123       -3.3858571898
 O         3.7542554363       -6.8292120629       -4.5872160841
 O         2.4909843334       -3.1050810527       -5.4298331169
 C         3.0332039838       -5.3220830005       -6.7432038061
 C         0.6516966213       -5.5253150904       -6.1472869911
 C         1.8441831606       -2.5371311438       -2.8187951504
 C         0.6801361009       -1.6677190123       -2.4559586161
 C         0.7830924710       -0.1247263403       -2.7544439035
 C         0.3414912243        0.7744817820       -1.4698682866
 C         1.4374014538        0.9846040602       -0.3632209279
 C         2.2019017864        0.2780813732       -3.2998248339
 C        -0.3780972684        0.1118462165       -3.7769541487
 O        -0.3070796046       -2.0890192439       -1.9071322820
 O        -0.7844107994        1.1993984670       -1.4298930944
 C         2.1176403500       -0.4602049108       -0.0858793376
 C         2.5852743453       -0.5525481671        1.3053333628
 C         2.0336277481       -1.8834708297        2.1559959375
 C         0.4620406379       -1.6456360988        2.4461594506
 C         0.1893338267       -0.9135388535        3.8067834898
 O         3.2568505479        0.2777998055        1.8647319053
 O        -0.4411068948       -1.9927555467        1.7358381765
 C         2.1278176934       -3.1973933658        1.2795971026
 C         2.9494562850       -1.9861714132        3.4215944999
 C        -1.3332386767       -0.5348836953        3.9073539748
 C        -1.7836217357        0.0903595842        2.5973026601
 C        -3.3970213691        0.1292974733        2.2681392318
 C        -3.8571316408        1.6198999840        2.6566346212
 C        -4.4909000804        1.8705967144        4.1099605752
 C        -3.5063775045       -0.0671365568        0.7090120062
 C        -4.3189464815       -0.8415840025        2.9829436741
 O        -1.0271119752        0.6364351062        1.7443582803
 O        -3.3654099710        2.5643067965        2.1116654669
 C        -4.1290209948        3.3405561375        4.7063685658
 C        -2.6576669443        3.2695187501        5.1966044052
 C        -2.0857509198        4.3192386612        6.1169456028
 C        -1.2273108406        5.2488621372        4.9231003115
 C        -0.0102115226        4.5205353754        4.3564249458
 O        -1.9112391871        2.3040260296        4.8560916266
 O        -1.7551355878        6.2995473478        4.5793661284
 C        -3.0875172236        5.2717219873        6.7852854518
 C        -1.1231185311        3.7366431753        7.2059953528
 C         0.6996211092        5.1157223612        3.0856811478
 C        -0.2244620780        4.8626990233        1.8989519565
 C        -0.7407352879        6.0660175342        1.0388053153
 C        -2.0152470682        5.4785669417        0.1710983631
 C        -3.4468574912        5.7672872376        0.4305879767
 C        -1.1453701762        7.4262895277        1.7230224681
 C         0.4912500881        6.2843830060        0.0857254156
 O        -0.3633228409        3.7093936017        1.5439514199
 O        -1.7564158720        4.7155216106       -0.7782590101
 C        -4.2875097121        5.6816360854       -0.9421216476
 C        -4.7354387447        4.2738773028       -1.2449048081
 C        -5.9326755904        4.1342322098       -2.3253405476
 C        -5.4700928698        5.1780831196       -3.6335969500
 C        -6.6714224507        5.5799886382       -4.6042586077
 O        -4.1922110891        3.2852473041       -0.8436201380
 O        -4.3667874666        5.4372006488       -3.9186720124
 C        -5.9370176049        2.6856811689       -2.8814780568
 C        -7.3285818000        4.6202389933       -1.7948710941
 H         5.6525651198       -7.0351969323       -3.1933067279
 H         6.9124302620       -7.8319484041       -1.9995360991
 H         6.4967953416       -8.5294935816       -3.5633989455
 H         2.8376026775       -9.2294119631       -3.2764945638
 H         1.3217324071       -9.0076177516       -2.4698098775
 H         4.4329417640       -9.3001172525        0.6653037452
 H         3.3574737894      -10.0165456974       -0.4476251399
 H         2.7339617588       -8.8192378071        0.6056508751
 H         3.9051244725       -6.3638151770        0.3878354182
 H         5.3901822529       -7.0840370844        0.3948915140
 H         4.9076340373       -6.2193633893       -1.1187702416
 H         1.3613232785       -8.2283827716       -4.8707645436
 H         0.6555226007       -7.1290142047       -3.6588590991
 H         0.4106062160       -3.8433017413       -3.6166252618
 H         1.7825104603       -4.6700309865       -2.6800586592
 H         4.0120665732       -5.5551183989       -6.5027123356
 H         3.0827939460       -4.2625430374       -7.1931878025
 H         2.5722659428       -6.0909230276       -7.3549926300
 H         0.4622558842       -4.6354577890       -6.7321137011
 H         0.5091351164       -6.4890470050       -6.6905326852
 H        -0.0964198564       -5.5215245614       -5.3272070680
 H         2.4087898203       -2.0048263393       -3.5605075917
 H         2.4287067748       -2.6675091421       -1.8941748510
 H         2.2002883023        1.6371786780       -0.7900328302
 H         1.1113654453        1.5281438934        0.4921274529
 H         2.9992248708        0.1586116308       -2.5953902211
 H         2.0133543462        1.2553571490       -3.6907890010
 H         2.3650748046       -0.4107227881       -4.0809178578
 H        -0.5015862015        1.1419458506       -4.0226877985
 H        -0.2933239129       -0.4338785545       -4.7028983446
 H        -1.2156884143       -0.1271318879       -3.1103246620
 H         1.3403122832       -1.1753713110       -0.2995483673
 H         2.8874017589       -0.6364025035       -0.8212341419
 H         0.4248213932       -1.5460321659        4.6891543702
 H         0.7871454993        0.0884492919        4.0360250467
 H         2.8737809732       -3.0153819611        0.5461557738
 H         1.2012048098       -3.3442789655        0.7558780490
 H         2.3920692990       -4.1221410780        1.8481419113
 H         3.0628011214       -1.0126370454        3.9061447676
 H         2.7101110155       -2.6930079236        4.2246500711
 H         3.9435068600       -2.2683429377        3.1260686402
 H        -1.4864893365        0.2427060067        4.6436190242
 H        -2.0017756919       -1.3232181647        4.1524734080
 H        -5.5208666029        1.7349106562        3.9601354365
 H        -4.1400063649        1.1791761205        4.8196354669
 H        -3.0792202659        0.7787920549        0.2454013722
 H        -4.5842848255       -0.1300542367        0.6631114376
 H        -3.0627599077       -1.0112818536        0.3601731827
 H        -5.3362653005       -0.4218712728        3.1868607240
 H        -4.7140270195       -1.7105215675        2.4242910906
 H        -3.9078297855       -1.2269916394        3.9095873238
 H        -4.1968172594        4.1314721026        3.9562490951
 H        -4.7812363603        3.5707196809        5.5531667730
 H         0.7314176371        4.4633750310        5.1401517809
 H        -0.2872432366        3.4970693884        4.2678084294
 H        -2.6751646717        6.2866819147        6.9400729040
 H        -3.4799050009        4.7053633728        7.6790677177
 H        -3.8041461256        5.5361742361        6.0394107389
 H        -0.1587819241        3.4970920023        6.8411140504
 H        -0.9472332390        4.5732445820        7.9900561925
 H        -1.5394705623        2.9452674179        7.8288734082
 H         1.7484582636        4.6802728109        3.0860165525
 H         0.7575601747        6.1701162483        3.4336905823
 H        -3.8266843482        5.0364705897        1.0897533086
 H        -3.5214781438        6.8061963346        0.8332605811
 H        -1.3014664447        8.1773240901        0.9192471499
 H        -0.2253150115        7.8198475371        2.2174438201
 H        -2.0746612706        7.3814068208        2.3122922103
 H         1.3605515490        6.4611154054        0.6459220824
 H         0.5393659904        5.3728450666       -0.4172167587
 H         0.2446188014        7.1057164731       -0.5913098032
 H        -5.0581777854        6.4793963188       -1.1096126344
 H        -3.6996288545        5.9167521879       -1.7980048451
 H        -7.5310353142        4.9629141290       -4.3478696508
 H        -6.8210611808        6.5995641613       -4.2795909098
 H        -6.2737578537        5.5546062690       -5.6487773870
 H        -5.0455903387        2.4073905064       -3.4050941793
 H        -6.7155200796        2.6497869216       -3.6037195965
 H        -6.1344683288        1.9902095825       -2.0324535862
 H        -7.6678775684        5.4962858620       -2.3454564883
 H        -8.0905452911        3.8872637906       -1.8977678562
 H        -7.1846231119        4.9199405736       -0.7004708582
 Na       -1.8567664572        2.3482598338        0.1026034525
