155

 C         6.4115309248       -8.2720626421       -2.6240851002
 C         5.1336729899       -8.8036882124       -2.0631390655
 C         4.1789327651       -7.9685315617       -1.1154113997
 C         3.2421178636       -7.1810310826       -2.0316477676
 C         2.3964358390       -7.9231676660       -3.1025007119
 C         3.2884609562       -8.9203757634       -0.2590476909
 C         5.0124867989       -7.0791657485       -0.1868651894
 O         4.7459828016       -9.9280344115       -2.3852779697
 O         2.9471573204       -6.0435786429       -1.7374815853
 C         1.7442301798       -7.1127528437       -4.2889503112
 C         2.7803348737       -6.1637984115       -4.8946398625
 C         2.3789257405       -5.2124109625       -6.0899130367
 C         2.5958206779       -3.7464103175       -5.7102592962
 C         2.0159625445       -3.1779643156       -4.3314187229
 O         3.9317836844       -6.2087860459       -4.5199890843
 O         3.0693228436       -2.9697627003       -6.5419911387
 C         3.2401405550       -5.5390626768       -7.2879683519
 C         0.8292854232       -5.4364133744       -6.3931161206
 C         2.2071515891       -1.5833611587       -4.1247698862
 C         1.2604931115       -1.0525843956       -3.0305696712
 C         1.1715862484        0.5129785398       -2.5772965783
 C         0.4695038466        0.7348115329       -1.2166392157
 C         1.1919392979        0.4085499250        0.0777418996
 C         2.5682415646        1.1214041656       -2.3872986481
 C         0.3708200433        1.1350157217       -3.6511900846
 O         0.4051168472       -1.7318388199       -2.4880508502
 O        -0.5810586283        1.3734808032       -1.1913879896
 C         1.5355078306       -1.0591258162        0.5045797870
 C         2.1977048071       -1.1138101467        1.9725582127
 C         1.7888987320       -2.2057525384        3.0850646692
 C         0.2769031293       -2.3177411437        3.3900148826
 C        -0.4609010646       -0.9502023792        3.7154973590
 O         3.0584008466       -0.3659797959        2.2734977728
 O        -0.2794768199       -3.3733698115        3.5666512367
 C         2.2355465490       -3.5088361985        2.4292590226
 C         2.6297362392       -1.9721091393        4.3748744243
 C        -1.9363686547       -1.0006592990        3.5626211527
 C        -2.4155460506        0.0093295975        2.5251320899
 C        -3.9233455523        0.2172926272        2.1685967861
 C        -4.1788224244        1.6605871084        2.5400480088
 C        -4.7615699432        1.9763125187        3.9065987446
 C        -4.1635905852        0.0307369298        0.6009120396
 C        -4.8940932978       -0.8203229926        2.9001450226
 O        -1.6123902209        0.7690683036        1.9982807339
 O        -3.8569075168        2.6193479525        1.9082800600
 C        -4.1982921268        3.2876864327        4.6655398786
 C        -2.6651017677        3.1488717123        4.9540291968
 C        -2.2809522428        4.2287285415        6.2008929895
 C        -1.7857813905        5.4288585173        5.2423010697
 C        -0.3094145801        5.3617757475        4.8184479300
 O        -1.9486037397        2.3161625226        4.4632833447
 O        -2.6287255513        6.1695793112        4.8216440236
 C        -3.5188532130        4.8205275641        7.0178408895
 C        -1.2493976599        3.6726453628        7.1371058761
 C         0.0056606285        5.9557004007        3.4075979217
 C        -0.7581795706        5.2330753683        2.2537971594
 C        -1.0347671932        6.3128108945        1.0483202894
 C        -1.9808996211        5.8048787557       -0.1191648275
 C        -3.5022583228        5.6168277635        0.0743127325
 C        -1.8532600482        7.6068718033        1.5206721387
 C         0.4240694583        6.6512960707        0.5710881388
 O        -1.1964322969        4.1637363901        2.2909617729
 O        -1.4720149078        5.6200983727       -1.1986789585
 C        -4.2368804961        5.3824118518       -1.2340456557
 C        -4.2328428151        3.8674724812       -1.5946016102
 C        -5.1486191424        3.3095182469       -2.7013378012
 C        -4.9012139593        4.0441070707       -4.1277408279
 C        -5.4979961027        3.3248865820       -5.3621073079
 O        -3.5884572022        3.0609210302       -0.9686992258
 O        -4.2797510370        5.0650242433       -4.1694370586
 C        -5.1183535924        1.7555031250       -2.7053002741
 C        -6.5768101469        3.9345896391       -2.4330029159
 H         6.3674994019       -7.3466303363       -3.0584246302
 H         7.2821583458       -8.2342336632       -1.9428873479
 H         6.6387534637       -9.1307142036       -3.3513667771
 H         2.9769431230       -8.7325251778       -3.5755984835
 H         1.5464921441       -8.4696274905       -2.6237635171
 H         3.9088344774       -9.4441687997        0.4691978726
 H         2.9121497493       -9.8048985710       -0.8632731213
 H         2.4915023224       -8.2537882846        0.1581717739
 H         4.3862997165       -6.3113347081        0.2238524044
 H         5.5427207625       -7.6739528879        0.6296189041
 H         5.7507035506       -6.4483581746       -0.8177135151
 H         1.2766994469       -7.8349615952       -4.9128433897
 H         0.9059771967       -6.3878971423       -3.9938785174
 H         0.9717804013       -3.4294737022       -4.3680307749
 H         2.5101338338       -3.7273646801       -3.5239677081
 H         4.3120306637       -5.1271872808       -7.0479365764
 H         2.7674361194       -5.1868854523       -8.1422953951
 H         3.3596188770       -6.6256410181       -7.3507371891
 H         0.5841830665       -4.6921904507       -7.1133003381
 H         0.7019788928       -6.5062044059       -6.6231479923
 H         0.2574443044       -5.3065071550       -5.4444421439
 H         2.0510156663       -1.0815974851       -5.0810811902
 H         3.2524022596       -1.2702743639       -3.8710070694
 H         2.1097857269        1.0612789089        0.1518119084
 H         0.5549092035        0.6626591959        0.9692896035
 H         3.3372212585        0.5817574520       -1.8135066041
 H         2.5069201784        2.0691104578       -1.7507267645
 H         3.0115156324        1.4124602976       -3.3532340950
 H         0.2997369463        2.1999484094       -3.5488280667
 H         0.8842200659        0.8952370831       -4.5557877644
 H        -0.5261208346        0.5890630205       -3.8014666960
 H         0.6151134406       -1.7042081630        0.6112787185
 H         2.2338132782       -1.6088488572       -0.1806113544
 H        -0.1375783438       -0.6465595991        4.7892962275
 H        -0.0749404049       -0.1517318096        3.1202675354
 H         3.2585219759       -3.4350720320        1.9484448364
 H         1.5251860554       -3.7077562109        1.6164088769
 H         2.1778430998       -4.3585321199        3.1152401422
 H         2.2943322635       -1.0721975099        4.9311048758
 H         2.6159736223       -2.7738507820        5.1661748917
 H         3.7026178132       -1.7919221200        4.2440993027
 H        -2.5171493316       -0.7750926753        4.4697826426
 H        -2.1544746596       -2.0317481219        3.3201328622
 H        -5.8779927975        2.1330634551        3.7931532232
 H        -4.6412647879        1.0224784970        4.5592348602
 H        -3.6181995655        0.8671698380        0.1513969073
 H        -5.2026528760        0.2857571144        0.5187866265
 H        -3.8766697315       -0.9714865318        0.3812185623
 H        -4.2488382397       -1.1954886174        3.6656018587
 H        -5.8306682323       -0.3843775138        3.2644852508
 H        -5.1881034943       -1.6967102720        2.2777938712
 H        -4.4386020760        4.1371364788        3.9715320631
 H        -4.8361413055        3.5049662387        5.5261692648
 H         0.2285318111        5.9641612358        5.6343976138
 H         0.0614591613        4.3505541881        4.8146608463
 H        -3.2609828396        5.5440705587        7.7385664874
 H        -4.0341047896        4.1482361768        7.5891004254
 H        -4.2606354153        5.3971048646        6.3213269536
 H        -1.2519657658        4.1139637990        8.1202532026
 H        -1.3763770419        2.6092620716        7.2722192334
 H        -0.1780345432        3.8402550814        6.9585998880
 H         1.0557001738        5.7227713235        3.2186485066
 H        -0.1492395836        7.0452212655        3.4049238380
 H        -3.6741157540        4.7810170753        0.8158729341
 H        -4.0042058499        6.5044360502        0.5815558912
 H        -1.9954201223        8.1934376210        0.6537345850
 H        -1.2512647077        8.3027187780        2.1419826898
 H        -2.7223932479        7.2253161894        1.9901314128
 H         0.5618611742        7.7383098517        0.6571688566
 H         1.2409547155        6.2574269324        1.2380524683
 H         0.7060964382        6.1496061281       -0.4140188219
 H        -5.2577068449        5.7041575020       -1.0617182263
 H        -3.6886616741        5.9243520545       -2.0088564236
 H        -4.7550778819        2.6496005714       -5.7936408808
 H        -6.4382199976        2.8159592307       -5.1394434025
 H        -5.5533818442        4.0288771725       -6.1911850455
 H        -4.1240220038        1.4109293379       -2.4529530487
 H        -5.4535105693        1.3643379112       -3.6576782769
 H        -5.7017259789        1.2853585559       -1.8791449457
 H        -6.7030824481        4.0427763589       -1.3069945031
 H        -6.6139723087        4.9874869209       -2.9281293168
 H        -7.4217045540        3.3736047208       -2.7824155444
 Na       -1.9981443831        2.4789667194        0.6184170292
