155

 C         6.3481265090       -8.1906663008       -2.5283716467
 C         5.0653129708       -8.8946744687       -2.1184881552
 C         4.1018936568       -8.0347103734       -1.1611701610
 C         3.1969396477       -7.1670298480       -2.0881975482
 C         2.3777326592       -7.8896468517       -3.0922675591
 C         3.3655811894       -8.9460909537       -0.2677379924
 C         4.8848498438       -6.9914318136       -0.3354675394
 O         4.8940083240      -10.0388000730       -2.3612031402
 O         3.1937449558       -5.9644010614       -2.0617702251
 C         1.7719876069       -6.8222237722       -4.0302988666
 C         2.8075909845       -5.9254858985       -4.7643041638
 C         2.3182296612       -5.0697572677       -5.9892483497
 C         2.7044306746       -3.4761774066       -5.6750452405
 C         2.0357992790       -2.9939266912       -4.3555314145
 O         3.9992107219       -5.9796577587       -4.5552214688
 O         3.2064221371       -2.7457780291       -6.4683431201
 C         3.1738942509       -5.5161553303       -7.2020874050
 C         0.8073521615       -5.1980868820       -6.4059002481
 C         1.9944997735       -1.5110977784       -4.2738791465
 C         1.2500940816       -1.0422437191       -2.8522589036
 C         1.3461551526        0.5035037656       -2.4180785925
 C         0.6634703178        0.7631258522       -1.0229640806
 C         1.4115872371        0.5162159108        0.1828906243
 C         2.8036143946        0.9290846293       -2.6163284686
 C         0.5955368255        1.3298937238       -3.4615181684
 O         0.6387573131       -1.8599928488       -2.2382976864
 O        -0.4358957618        1.2834100023       -0.9591871638
 C         1.2473178193       -1.0044358844        0.5828090391
 C         2.1501859566       -1.1288418978        1.8944486601
 C         1.7946481815       -2.2440094449        2.9158901532
 C         0.2483016782       -2.3235866105        3.4250582793
 C        -0.4638832110       -1.0176156272        3.8246494085
 O         3.0494509349       -0.2781172475        2.1322783806
 O        -0.2249977766       -3.4034983428        3.6676338036
 C         2.2232539570       -3.6469706233        2.2324218734
 C         2.6098164292       -1.9976360743        4.2337910231
 C        -1.9865239615       -1.1271109222        3.5691019972
 C        -2.4806419664        0.0004260113        2.5299233295
 C        -4.1239855233        0.3006986012        2.2448209190
 C        -4.3818908516        1.7961706215        2.6826584216
 C        -5.0249581728        2.1065503337        4.0279975103
 C        -4.2334591160        0.1889466561        0.6801589062
 C        -5.0652528692       -0.6413877942        2.9455804158
 O        -1.6559923935        0.5079903900        1.8215788479
 O        -3.9874918881        2.6862774969        1.9070324407
 C        -4.3306817945        3.3980119868        4.5077801411
 C        -2.9246323870        3.1253512701        5.1598651644
 C        -2.4738083600        4.2292251114        6.1685664612
 C        -1.8058794488        5.1763701204        5.1868555030
 C        -0.3108793210        5.1534788210        4.8115081249
 O        -2.2564969571        2.1169892973        4.9762187588
 O        -2.4319128522        6.0095053662        4.5599234038
 C        -3.6173653846        4.8520292920        6.9434346563
 C        -1.4182735338        3.5847925810        7.1938712191
 C        -0.1056115928        5.9544084035        3.5057732321
 C        -0.9450139562        5.4177113905        2.2850423711
 C        -1.1304628609        6.3810041836        1.0799234737
 C        -2.0426078960        5.8236948595       -0.0790897376
 C        -3.5922238015        5.7077810966        0.0221227559
 C        -1.6439269783        7.7963821239        1.5909911731
 C         0.2622968981        6.4829397699        0.3613570519
 O        -1.3437102704        4.1812999524        2.3393794236
 O        -1.4948039422        5.6675225093       -1.1792350201
 C        -4.2208859852        5.2444605549       -1.3543622394
 C        -4.1511894126        3.7695677757       -1.6602777128
 C        -5.0211431930        3.1778708102       -2.7377220744
 C        -4.8130748301        3.8745954983       -4.2579442227
 C        -5.1915245493        2.9814551263       -5.4231428041
 O        -3.3813125954        3.0097601157       -1.0863951980
 O        -4.3312332620        5.0069441339       -4.4316901887
 C        -4.8523054691        1.5911834715       -2.7812808058
 C        -6.4981424297        3.4962940772       -2.4068280905
 H         6.1636564603       -7.1361048818       -2.9452268438
 H         6.8495387319       -7.9459535753       -1.6238189335
 H         7.0100734489       -8.7841826949       -3.0878214775
 H         2.8391355811       -8.7604615230       -3.5781365244
 H         1.4992061972       -8.2385786476       -2.5216929981
 H         4.1147451630       -9.4598841221        0.3731141665
 H         3.0686625709       -9.8036804369       -0.8658929425
 H         2.5518645250       -8.4032430249        0.2025681675
 H         4.2138262349       -6.4588928778        0.3660986833
 H         5.5259567920       -7.5267503638        0.2823080692
 H         5.3230555998       -6.3016084056       -0.9890637261
 H         1.2459697663       -7.4191735862       -4.8326188219
 H         1.0293569560       -6.2759646933       -3.5411194106
 H         1.0115033398       -3.4672602693       -4.3055311778
 H         2.5784606523       -3.4033284174       -3.4953202311
 H         4.1824984299       -5.3423091036       -7.0084513077
 H         2.8439023441       -4.8914925318       -8.0899243886
 H         2.9587637998       -6.5355545896       -7.4200452686
 H         0.7485113303       -4.5449860540       -7.2601440847
 H         0.6672591375       -6.2345512070       -6.4660471240
 H         0.1392209592       -4.8253664000       -5.6881335209
 H         1.5723903143       -1.0332318906       -5.1792812679
 H         3.0126941361       -1.1811013026       -4.2838254322
 H         2.4208247268        0.8900014523        0.2347296166
 H         0.9431689077        0.9265601293        1.0522594400
 H         3.6056352894        0.7223518913       -1.8655766541
 H         2.9207895273        1.9999852325       -2.7486800942
 H         3.1538077241        0.4865585112       -3.5359890135
 H         0.7134058914        2.3426332262       -3.0876066629
 H         0.9964434239        1.3222567735       -4.4977934549
 H        -0.4698537123        0.9976386878       -3.4652627733
 H         0.2409123865       -1.1222119933        0.9561715304
 H         1.5306004877       -1.7195358129       -0.1552838792
 H        -0.2302690905       -0.8940488682        4.8484370729
 H         0.0440079199       -0.0818901962        3.3471723154
 H         3.2248788533       -3.8774471704        2.4826834927
 H         2.1949270506       -3.6658953479        1.1558209926
 H         1.5087302405       -4.4239869676        2.6029896984
 H         2.2014245577       -1.4294889420        5.0489249575
 H         2.9110469025       -2.9380687532        4.6554713996
 H         3.5793363006       -1.5668436393        4.0828985151
 H        -2.5265087868       -1.2298479851        4.5339274277
 H        -2.1803898731       -2.1207140600        3.0436293898
 H        -6.0655985751        2.2829330075        3.8874999262
 H        -4.9793969168        1.4089108145        4.7995202371
 H        -3.3913598439        0.7972302489        0.3850151807
 H        -5.1725767621        0.6682355560        0.3856073258
 H        -4.1552373865       -0.8968440866        0.4833339368
 H        -4.6607614565       -1.6415168943        3.1312740347
 H        -5.1681709427       -0.1218763696        3.9218172062
 H        -5.9542692421       -0.7038350690        2.3662050586
 H        -4.2787220418        4.2483729899        3.8152219737
 H        -5.0508228174        3.6866073385        5.2989251432
 H         0.2926509593        5.6762089461        5.5149114795
 H         0.0666580093        4.0947616099        4.7533904677
 H        -3.3797196611        5.5085730068        7.8135151991
 H        -4.3614713901        4.0531752246        7.3204018073
 H        -4.1337890824        5.5529547368        6.3905966678
 H        -1.4988210766        3.7469139301        8.3544494128
 H        -1.3588234619        2.5216904622        7.0157452377
 H        -0.4349297349        3.9371462239        7.0382310003
 H         0.9972222123        6.0144066425        3.1711434439
 H        -0.5397099390        6.9295378936        3.8204862769
 H        -3.9159919398        5.0435879250        0.7781724211
 H        -3.9434212332        6.6477867354        0.3865358295
 H        -1.9476075650        8.3922509642        0.7180968612
 H        -0.8026799672        8.3286554138        2.0028274659
 H        -2.4689442237        7.5947679644        2.2783383978
 H         0.3790413951        7.4173881440       -0.2280098694
 H         1.1681987090        6.4769054560        0.9170647095
 H         0.3414976202        5.6741562976       -0.2188941520
 H        -5.2790766154        5.5321747748       -1.3607051097
 H        -3.6415966361        5.6382061481       -2.1594023046
 H        -4.3190188913        2.3659575269       -5.7120643765
 H        -6.0165112679        2.3459311543       -5.1760631347
 H        -5.5298794953        3.5419794222       -6.3309820132
 H        -3.8507255668        1.3462128348       -2.3772715176
 H        -4.9492525260        1.1077678474       -3.7566076014
 H        -5.4820095535        1.0845477489       -2.0666191576
 H        -6.7586983904        3.0285343988       -1.5048226259
 H        -6.6892832426        4.5195136222       -2.3713931087
 H        -7.1925865183        3.0744339482       -3.1437110084
 Na       -1.7904245158        2.4951336986        0.5250755786
