155

 C         6.1715352984       -7.4262018620       -2.6646836915
 C         5.1709671934       -8.4158492023       -2.2243712150
 C         4.1033694068       -7.8158355186       -1.0863087670
 C         3.2531802127       -6.6494047400       -1.9167757977
 C         2.7547236648       -7.1425158958       -3.2389717612
 C         3.2072550787       -8.9485685113       -0.5182941543
 C         4.9542781867       -7.1318957221        0.0898388163
 O         5.1213693413       -9.5348324918       -2.5652245069
 O         3.1072517356       -5.5501987524       -1.4765686056
 C         1.9582628740       -6.0336180010       -4.0310278348
 C         2.8458456283       -5.5924663304       -5.2824598131
 C         2.2751105449       -4.4379973350       -6.2285903896
 C         2.4214975042       -3.0552362223       -5.5534318693
 C         1.5839271850       -2.6026431555       -4.3624199414
 O         3.8936794041       -6.0830403852       -5.6303998660
 O         3.3500306287       -2.3205977988       -5.7870064343
 C         3.1981675097       -4.4366986805       -7.4728682699
 C         0.8359842412       -4.6156632999       -6.7385245715
 C         1.6482786058       -1.1166038731       -4.0793253665
 C         1.7115516369       -0.6617378506       -2.6002513015
 C         1.9417614406        0.8613343113       -2.2069941551
 C         1.3129814677        1.1375949412       -0.7701111293
 C         2.1990887685        0.6822865684        0.4853498026
 C         3.3904389186        1.2203426906       -2.3078639958
 C         1.0803631218        1.7870112954       -3.2426623529
 O         1.5847897747       -1.4357999405       -1.6992046878
 O         0.2600199836        1.7272065061       -0.7051461794
 C         1.3131836735       -0.3349926773        1.1860884819
 C         1.7748339139       -0.8034415671        2.5803264356
 C         1.3160313246       -2.2189279945        3.0103646037
 C        -0.2505625309       -1.9874984958        3.1222924745
 C        -0.8637219699       -1.5341585998        4.4305396467
 O         2.3350670448       -0.0033835651        3.3832273492
 O        -0.9875597953       -2.1207855456        2.1509836220
 C         1.4439713371       -3.2625954409        1.8597314028
 C         1.9461671573       -2.7818015255        4.2706591610
 C        -2.2346823696       -1.0028247606        4.2630304422
 C        -2.4566460396       -0.2200306309        3.0870931266
 C        -3.9932481533       -0.0356730734        2.5666108889
 C        -4.2109570465        1.5764333614        2.9534244584
 C        -5.4127772656        2.0083885803        3.8063211258
 C        -4.0097094307       -0.2225218629        1.0002316242
 C        -4.9510506301       -1.0744022128        3.1891743694
 O        -1.6207872533        0.3976878148        2.4045359894
 O        -3.4914680849        2.4332626989        2.4723568168
 C        -5.2852799984        3.3635791500        4.5300598093
 C        -4.1714772332        3.1783524125        5.6750054828
 C        -3.0124120766        4.2362915233        5.9947474318
 C        -2.4518412717        4.7982735034        4.6786972061
 C        -0.9379909743        5.0123332646        4.5086735277
 O        -4.2563388596        2.1440397774        6.3005021973
 O        -3.2635249570        5.3666099571        3.9187097960
 C        -3.3400737648        5.4283161469        6.9618448220
 C        -1.8395470670        3.3831829632        6.7158682319
 C        -0.4701109695        5.8505745269        3.3584351266
 C        -0.5612780652        5.2156867818        1.9685580908
 C        -0.9667685914        6.0211063246        0.7442440569
 C        -1.7702018148        5.1802662349       -0.4176794549
 C        -3.2091443091        4.6272937303       -0.1196756888
 C        -1.8478110101        7.2074892130        1.0947169092
 C         0.4068101302        6.5602523130        0.1803431670
 O        -0.3342410756        3.9983177434        1.8553123816
 O        -1.3591466101        5.1381919858       -1.5629180868
 C        -3.8922197033        4.2917794596       -1.4431310475
 C        -3.7974874829        2.7993500574       -1.9150216604
 C        -4.5491624121        2.3491425727       -3.2636277264
 C        -4.3724170354        3.3938594589       -4.4588114091
 C        -3.7783183176        2.9186234320       -5.8043300495
 O        -3.1553408728        1.9750087001       -1.2405631515
 O        -4.8370244862        4.5202971312       -4.2350515605
 C        -4.0897922107        0.8942106581       -3.7159724269
 C        -6.0361656682        2.4242798101       -3.0047583742
 H         5.8458867445       -6.3700441084       -2.6893184839
 H         7.0733951419       -7.5553145676       -2.0716808280
 H         6.4429585630       -7.6081275186       -3.6708199323
 H         3.6447649364       -7.5235607634       -3.7589942819
 H         2.1016523433       -7.9814012350       -3.0126762661
 H         3.8644462147       -9.8033208680       -0.0907376592
 H         2.5999105577       -9.3015413773       -1.3830465535
 H         2.5767979525       -8.7138125449        0.3694145168
 H         4.2658387119       -6.9340376859        0.9227816808
 H         5.6602780111       -7.8815818272        0.2222232648
 H         5.4411825107       -6.2390162522       -0.1085234836
 H         1.0362806568       -6.4025583371       -4.3536571498
 H         1.7776031949       -5.1750967337       -3.3325383279
 H         0.5186765029       -2.9992698346       -4.3771177940
 H         2.1587655630       -3.1313694112       -3.5776986296
 H         4.2354840469       -4.5155171764       -7.2267870300
 H         2.9733295155       -3.5526611155       -8.0881221963
 H         3.0727353271       -5.2868854576       -8.1374931171
 H         0.7091150264       -4.0032983565       -7.6461016839
 H         0.7711430024       -5.6297412352       -7.1138791725
 H         0.1829072482       -4.4500512388       -5.9007086906
 H         0.8551782737       -0.5981472850       -4.5712693824
 H         2.5808325235       -0.7252784349       -4.5442572787
 H         3.0835898337        0.1560405981        0.2922824815
 H         2.2286806642        1.5648442027        1.0740083722
 H         4.0904962922        0.4374500517       -2.0565257180
 H         3.7373401703        2.0331905746       -1.7680851494
 H         3.7196765017        1.4580491629       -3.3316342502
 H         1.0362053163        2.8440962431       -2.8618756733
 H         1.4788176436        1.7706641671       -4.2637368388
 H         0.0417811393        1.4299514609       -3.3110840276
 H         0.3702124232        0.2466021142        1.2703430232
 H         1.1915413113       -1.1149816091        0.4428420600
 H        -0.8980863171       -2.4736422025        4.9144573131
 H        -0.1813222552       -0.9041364752        4.9699401651
 H         2.4865872293       -3.5592826397        1.7670578584
 H         1.0328524178       -2.8623991540        0.8916598255
 H         0.9245634737       -4.1683994459        2.1363239239
 H         2.2538229020       -2.0764667264        5.0559799137
 H         1.3776766345       -3.5280055617        4.7873681653
 H         2.9450461011       -3.2118767224        3.9459784710
 H        -2.3329903691       -0.4116399660        5.2329554112
 H        -2.9479347673       -1.8389324269        4.3470807468
 H        -6.2600529881        2.0184291430        3.1844386427
 H        -5.6480473187        1.3308884707        4.6031741382
 H        -3.2362050420        0.3959612152        0.5938699751
 H        -5.0693815340       -0.0316931760        0.6689171167
 H        -3.6955512856       -1.2652352020        0.8669921650
 H        -5.6787795974       -1.2640081732        2.4158774330
 H        -4.5443330272       -2.0564217017        3.5038583955
 H        -5.4461402376       -0.7119794234        4.0849388275
 H        -4.9900208859        4.1640929840        3.8189168134
 H        -6.2341129511        3.5630366192        5.0113146930
 H        -0.3887442498        5.3044328111        5.4485213614
 H        -0.5078444725        4.0321878549        4.3759808005
 H        -2.3734315898        5.9660649989        7.1299500294
 H        -3.5374756475        5.1568279123        8.0632069622
 H        -4.1580515221        5.9332877495        6.6268322741
 H        -2.2663795605        2.8491292785        7.6897038166
 H        -1.5216129110        2.6222556587        6.0250547878
 H        -1.0289139940        4.0532477297        6.9019899804
 H         0.5309497312        6.2707427447        3.5437829492
 H        -1.1256882963        6.7060930340        3.3439189552
 H        -3.1658588849        3.7209095425        0.4794794094
 H        -3.8232305740        5.2530940391        0.4398631509
 H        -1.9776263901        7.8426667630        0.1735105505
 H        -1.3725748642        7.8841410216        1.7322115865
 H        -2.8475636544        6.9538771300        1.5144253068
 H         0.5597820989        7.6265464307        0.2239542499
 H         1.3298949134        6.1203325952        0.6332173470
 H         0.6040021703        6.3152211948       -0.7545343005
 H        -4.9582411401        4.3785202887       -1.3355236478
 H        -3.6334106340        4.9725744990       -2.2841734592
 H        -2.8360019977        2.4359634009       -5.6313749012
 H        -4.3910409725        2.0883215917       -6.1992596258
 H        -3.7432483411        3.7544158388       -6.5131574744
 H        -3.0179019399        0.7281124637       -3.4238129105
 H        -4.2022780784        0.7028144465       -4.8177642588
 H        -4.6135156465        0.0900586881       -3.2535106797
 H        -6.4340545906        1.9734653449       -2.1182811266
 H        -6.2498822875        3.4240424089       -2.8435481779
 H        -6.6340783750        2.1197101952       -3.9050546224
 Na       -1.5799620280        2.2156536248        0.7349493252
