155

 C        -2.6485749446      -10.1545747191       -0.6091779732
 C        -2.6174040625       -8.8065644394        0.0979469644
 C        -3.8356367295       -7.5859781717       -0.1404758799
 C        -3.1530981039       -6.3227030593        0.4426101815
 C        -3.0291773101       -6.1131524436        1.9321610835
 C        -3.8268119113       -7.2387056655       -1.7414357141
 C        -5.2701633335       -7.9627268715        0.3684683211
 O        -1.5344383326       -8.5741723697        0.6058913572
 O        -2.5721796999       -5.5503330156       -0.3613816480
 C        -3.2707640271       -4.6315549360        2.4273588326
 C        -4.6876298040       -4.1005597069        2.2043339528
 C        -4.7093679695       -2.4597003004        2.4078315781
 C        -3.9228803448       -1.7523856349        1.2387468063
 C        -4.5630226730       -1.3348894026       -0.0556383883
 O        -5.6191416490       -4.8040278495        1.8141665190
 O        -2.6716214041       -1.6840384705        1.3703707809
 C        -6.2229504789       -1.9463307749        2.4639258065
 C        -4.0408102448       -2.1742462458        3.7656874015
 C        -3.6041785640       -1.9102601352       -1.1276735393
 C        -2.5592942590       -0.8322136000       -1.5956881671
 C        -1.2686100514       -1.5114207615       -2.1940511607
 C        -0.2376597597       -0.5224008815       -2.6643497016
 C         1.0563975973       -1.1978177196       -3.2537596553
 C        -0.5713014078       -2.1121591571       -0.9400940454
 C        -1.6143480647       -2.6868242139       -3.1383748983
 O        -2.6986726639        0.3392725146       -1.3383436350
 O        -0.1247880891        0.6846791842       -2.3731890660
 C         1.2633527011       -0.8171470296       -4.7082447697
 C         0.5046577110       -1.6356615794       -5.7217625988
 C         0.3688866914       -0.9087881001       -7.2814105142
 C        -0.4442459131        0.4728624744       -7.1497760596
 C        -1.9971501695        0.2740999220       -6.8504189639
 O        -0.0738596017       -2.6494804493       -5.5042325813
 O         0.0586177168        1.5527738495       -7.0466707175
 C         1.8914617036       -0.6714196796       -7.7243385680
 C        -0.3076228444       -1.8901016338       -8.3458405302
 C        -2.7307594434        1.5743672210       -6.5152798709
 C        -2.2462937197        2.4016536697       -5.2438626301
 C        -2.6165275976        3.8615124169       -5.2055304991
 C        -2.3811934307        4.4751398358       -3.7898922430
 C        -1.7283184494        5.8697529551       -3.6706028207
 C        -1.7706188682        4.6742416842       -6.2118853149
 C        -4.1404390949        4.0356779489       -5.4983240468
 O        -1.7334103574        1.7539795808       -4.3755643845
 O        -2.7894037351        3.8135120830       -2.8052093079
 C        -1.3813438820        6.0921382523       -2.1932528013
 C        -0.3182066909        5.0636747964       -1.5564912466
 C         0.1701614542        5.4096090633       -0.1643199333
 C         0.0218568058        4.1096331307        0.6921237985
 C         0.0473403113        4.1954868629        2.3091439235
 O         0.2438951444        4.1690968192       -2.1465230055
 O        -0.1640494492        3.0248139061        0.1766374143
 C         1.7287076628        5.5257276783       -0.2583220665
 C        -0.3875471143        6.7157016089        0.4803148579
 C         1.4222067789        4.1858011264        2.9754789516
 C         2.3043903805        2.9872763495        2.5428822984
 C         3.8851634233        2.9051534799        3.1254809423
 C         3.7826361994        2.5774985292        4.7241944854
 C         3.3322928335        1.0475267884        5.0798802910
 C         4.5788983779        1.7936664557        2.2238982087
 C         4.5877885589        4.2413885557        2.9348453523
 O         2.0187435868        2.1382676888        1.7389764174
 O         4.0056409801        3.4202927439        5.5430204200
 C         3.8687997483        0.6791636014        6.4421201176
 C         5.4386368272        0.6243094951        6.4456399456
 C         6.0807816907        0.0476618845        7.8372931232
 C         5.9826919705        0.9924406960        9.0670633307
 C         7.2145603796        1.1851065994        9.9560619821
 O         6.0548901719        0.6364169870        5.4352420176
 O         4.8678904331        1.5191856760        9.2549075352
 C         5.3885069855       -1.2485089466        8.3061248699
 C         7.5760382914       -0.4001431259        7.6371427715
 H        -2.1876543890      -10.0533041764       -1.6143315950
 H        -1.9727586290      -10.9459193682       -0.2216331087
 H        -3.5651110264      -10.5821161393       -0.9574567845
 H        -3.7287868252       -6.7744078557        2.4562759142
 H        -2.1258362419       -6.4166635145        2.4045994920
 H        -4.2393253633       -6.2370785949       -1.8026795927
 H        -4.4971029688       -7.8313725453       -2.3885336786
 H        -2.8411541157       -7.3006157987       -2.1267367394
 H        -5.1586475759       -8.5036761743        1.3120152900
 H        -5.9454328431       -7.0709002622        0.4639819917
 H        -5.5497859096       -8.7115979028       -0.3848628567
 H        -2.9916929097       -4.6835551924        3.5047855870
 H        -2.4968027274       -4.0041973172        2.0145337451
 H        -5.5734049847       -1.6575803232       -0.0817394022
 H        -4.4490114944       -0.2662097689       -0.1498591031
 H        -6.2387961622       -0.8946983989        2.4972428308
 H        -6.6894364121       -2.3156092034        3.3346410668
 H        -6.7016809744       -2.1771955317        1.4786911106
 H        -2.9466065105       -2.0582901350        3.7232726425
 H        -4.4151180424       -1.2567756193        4.1989741457
 H        -4.2149573586       -2.9757360785        4.4573141874
 H        -4.1242220318       -2.1433892635       -2.0106980762
 H        -3.0811129024       -2.8412758314       -0.7107156752
 H         1.9360609911       -0.9785734151       -2.7207466461
 H         1.0192560491       -2.2785193536       -3.1750641200
 H        -0.6970549604       -3.1602667787       -0.6725955963
 H        -0.9614988105       -1.6207507484        0.0240012506
 H         0.5158162209       -1.9358201919       -0.9293040861
 H        -2.3727435737       -3.3324993521       -2.6453271134
 H        -2.1028753201       -2.3518293592       -4.0878826717
 H        -0.7925060541       -3.3402248498       -3.4245530015
 H         0.7227084145        0.1724771546       -4.9348604173
 H         2.3315434644       -0.6449987552       -4.8848015427
 H        -2.5322822013       -0.1885028069       -7.6855292031
 H        -2.0733798391       -0.3793645359       -6.0206217965
 H         2.4859683675       -0.0995254529       -7.0610024391
 H         2.0696653804       -0.1999097722       -8.7086388969
 H         2.3040606807       -1.6610277003       -7.8313229118
 H        -1.2633954990       -1.3683690607       -8.6127482230
 H         0.3613845017       -2.0697950997       -9.2186006882
 H        -0.6323795114       -2.8413585539       -7.8283321196
 H        -3.8037995875        1.3731799368       -6.1918426453
 H        -2.8570707008        2.3469532178       -7.3660125159
 H        -0.7706597957        5.9414625774       -4.1938725573
 H        -2.4194359334        6.6291074630       -4.0517802006
 H        -0.7268163379        4.2956853306       -5.9824731127
 H        -1.8260897122        5.7066255485       -6.1961269295
 H        -1.9899322300        4.4186709703       -7.2867154164
 H        -4.4019180842        5.0553398429       -5.2429654818
 H        -4.4095323537        4.0530924346       -6.5340388224
 H        -4.6826869349        3.3908261042       -4.8002810523
 H        -0.9417220203        7.0832129374       -2.1583590015
 H        -2.2184519816        6.2518696726       -1.5509882352
 H        -0.4138452854        5.1165836988        2.7382211168
 H        -0.5318667403        3.3012356201        2.5522227769
 H         2.1480927321        4.8278867950       -0.9771564538
 H         2.1315498230        5.4769369896        0.7179887395
 H         1.9768704603        6.5013198857       -0.8200713009
 H         0.1937100110        6.7981989814        1.4344479251
 H        -0.2144665472        7.6527506063       -0.0863102358
 H        -1.4402795983        6.5991909353        0.4052498545
 H         1.2444574849        4.0739168313        4.0533477527
 H         1.9757914207        5.1902850860        2.8381049163
 H         2.2440139922        1.1988351610        5.1076621792
 H         3.5367735792        0.2996441378        4.3345703853
 H         3.9827563135        0.9238160820        1.9252457835
 H         5.4188745918        1.4694389556        2.8758017730
 H         4.8883849759        2.3113622865        1.2952892915
 H         5.6506633070        4.1162323345        2.9495525342
 H         4.3851367057        4.5413885329        1.8982621625
 H         4.2669515216        5.0074878266        3.7111069951
 H         3.4925944650        1.3761400630        7.2762497362
 H         3.5754645333       -0.4017453763        6.6021917527
 H         7.0405069926        1.9779121307       10.6719665774
 H         7.4002968030        0.2384701803       10.4780357165
 H         8.0576095885        1.4586739130        9.3188986489
 H         5.7373066502       -1.6510260700        9.3015295611
 H         5.5441295848       -2.1360637597        7.6302570783
 H         4.2979368556       -1.1276737526        8.4224152599
 H         7.8317084353       -1.1682048199        8.4191248702
 H         7.5742313573       -0.9400509832        6.7213601219
 H         8.2798916353        0.4263794549        7.5434391814
 Na       -1.2938574171        2.3635138653       -1.9074388413
