155

 C         6.4036960318       -6.0962479122       -2.6330807000
 C         5.3672038293       -7.1316644763       -2.5837640116
 C         4.0288042116       -6.9702135193       -1.6883160917
 C         3.0992576095       -5.9465388704       -2.4690300081
 C         2.3428531328       -6.3859055145       -3.6653287005
 C         3.3832747906       -8.3402742384       -1.5541147709
 C         4.4813110624       -6.4482458777       -0.3191892870
 O         5.4928437496       -8.1321489500       -3.3275913015
 O         3.0706349120       -4.7666505513       -2.1716762503
 C         1.8569201011       -5.2120644597       -4.4665138754
 C         2.9525165130       -4.4361333876       -5.2433823448
 C         2.5617569760       -3.2164810346       -6.0797748181
 C         3.1018306210       -1.9857344940       -5.2602773154
 C         2.1535060811       -1.4142608532       -4.0692576382
 O         4.0854764136       -4.7581020001       -5.0960655405
 O         4.1755745781       -1.5738572333       -5.5369575505
 C         3.2308328481       -3.3411119105       -7.5325858651
 C         0.9787085399       -3.1148622836       -6.2318729514
 C         2.9960628885       -0.6680873136       -3.0278996300
 C         2.0994621264       -0.2710252098       -1.8232947028
 C         2.0609264695        1.1183326415       -1.2049355584
 C         1.3840819209        0.9419633915        0.1549874611
 C         2.1155488494        0.1936040391        1.2764718999
 C         3.4187287290        1.9281100324       -1.1379975171
 C         1.0037960775        2.0065623029       -2.1140091681
 O         1.1417493570       -0.9992631599       -1.3936765576
 O         0.2506577763        1.3296327448        0.3706076159
 C         1.3560833814       -1.0888568423        1.5915574067
 C         1.5293844306       -1.4874779421        3.0499397278
 C         0.9143023734       -2.7655347853        3.5914214263
 C        -0.5883748503       -2.5061022183        3.8369796139
 C        -0.8369727319       -1.3268486638        4.9046759107
 O         2.0146662421       -0.7311754832        3.8504872252
 O        -1.4213925467       -3.2742099854        3.5296581348
 C         1.1645037366       -3.8865014339        2.5914141339
 C         1.4774657323       -3.2038267506        4.9774076059
 C        -2.2761767000       -0.7989858586        4.6338456897
 C        -2.7368647858       -0.7048756923        3.1502342648
 C        -4.3557503037       -0.5009535007        2.9069247337
 C        -4.6635254156        1.0825585928        2.7595913831
 C        -5.8224530789        1.5764946113        3.5635932015
 C        -4.5236590862       -1.0648164858        1.4631250207
 C        -5.2437528552       -1.1504006818        3.9556987918
 O        -1.9785557163       -0.4516581219        2.2955914691
 O        -4.0827763110        1.7481183959        1.9233383072
 C        -5.7420559661        3.0646505102        3.9059601679
 C        -4.3946116099        3.3779437287        4.5257976302
 C        -4.0667086681        4.8836352398        5.0473124739
 C        -2.9450822723        5.5124978057        4.1016821146
 C        -1.5151669942        5.1106392059        4.2875908750
 O        -3.4846763181        2.5742620784        4.4241641196
 O        -3.1767545201        6.3483764749        3.2613503119
 C        -5.3752545224        5.6845077730        4.8291644651
 C        -3.6219812667        4.6750357648        6.6193115480
 C        -0.6726459971        5.3746369632        3.0277800638
 C        -0.9405587137        4.5730427570        1.8197555096
 C        -0.7889778340        5.1503377173        0.3565482376
 C        -1.5545035328        4.2740518439       -0.6713688332
 C        -3.0554854716        4.2254219866       -0.5142685590
 C        -1.5341993525        6.4795250671        0.2543250524
 C         0.7372158908        5.3882279622       -0.1278336766
 O        -1.3810633502        3.4064343872        2.0203556090
 O        -0.9785176536        3.8634299889       -1.6552252705
 C        -3.7317201799        3.4575337087       -1.6121010442
 C        -3.1126136588        2.0556623283       -2.0695774202
 C        -3.6462432302        1.6401368373       -3.4671060018
 C        -3.2253778458        2.6714745828       -4.5952126700
 C        -1.9065867444        3.3307543680       -4.4398159242
 O        -2.3901785654        1.3271614914       -1.3949297093
 O        -3.9689079914        2.8799330227       -5.5056356835
 C        -2.9294099454        0.2294134625       -3.8496194677
 C        -5.1948296059        1.4717828366       -3.3546313271
 H         6.1103458327       -5.0461144878       -2.6567423015
 H         7.1034565245       -6.2267444645       -1.8597332424
 H         7.0478730973       -6.1753399820       -3.5553585845
 H         3.0066925793       -7.0179329786       -4.2469457634
 H         1.4678536742       -7.0510696798       -3.4222649465
 H         4.0266152602       -9.1094179405       -1.2317204038
 H         3.0812120758       -8.7536190813       -2.5161266211
 H         2.5531482416       -8.2917247216       -0.9259480229
 H         3.6054859151       -6.7029139885        0.3542276120
 H         5.4733029605       -6.7411532427       -0.0961114129
 H         4.4209494439       -5.3704382388       -0.2581269525
 H         1.1021898414       -5.6101515715       -5.2042333396
 H         1.3523680096       -4.5071427914       -3.8350545611
 H         1.3015523508       -0.8522095014       -4.2801430914
 H         1.6755987863       -2.3083451638       -3.5967549218
 H         4.3105568442       -3.5697951019       -7.6377706947
 H         3.0489081897       -2.4549063585       -8.1044776034
 H         2.8235237218       -4.0949342445       -8.1262604673
 H         0.7178451201       -2.1498587358       -6.6151379104
 H         0.5575841318       -3.9101008017       -6.7987317864
 H         0.3926092404       -3.1247714687       -5.3317556388
 H         3.5387080145        0.2570405350       -3.3702351035
 H         3.8199735940       -1.2966001405       -2.6835690912
 H         3.1369481863       -0.0720934012        0.9327157943
 H         2.2247204826        0.8954267333        2.1797418908
 H         3.5432487709        2.5254688079       -2.1058481108
 H         4.0980596194        1.0652596606       -1.2263835985
 H         3.3840816518        2.5719981575       -0.2942683314
 H         1.1076022007        3.0891742215       -1.8204794027
 H         1.1845038549        1.8969430865       -3.2163149500
 H        -0.0266696271        1.6692000520       -1.8931261474
 H         0.2553787246       -0.8449785416        1.6905786900
 H         1.4441644914       -1.9608397989        0.9286244108
 H        -0.5666655996       -1.4619375714        5.8669188321
 H        -0.1990842373       -0.4376185558        4.7475150778
 H         2.2038857141       -4.0263759405        2.5246359299
 H         0.7769131912       -3.6416316286        1.6285220367
 H         0.6912967845       -4.8574084218        2.8174443687
 H         1.4844842917       -2.3466184718        5.6258425675
 H         0.7738945556       -3.9117413662        5.3387864015
 H         2.4735514245       -3.5817026062        4.7898352366
 H        -2.5233866437        0.2605225158        4.9701845670
 H        -3.0181179512       -1.3464606585        5.2312665759
 H        -6.7758574355        1.4273074574        3.0116933567
 H        -5.9367027286        0.9553584263        4.4971699332
 H        -4.0856680151       -0.4333842021        0.7081737114
 H        -5.5906809076       -1.2868678376        1.3818660153
 H        -3.9463305514       -1.9304036565        1.2716924986
 H        -6.2215189947       -0.7092617317        3.7520352215
 H        -5.3187790970       -2.2526531105        4.0565186196
 H        -4.8937810473       -0.9054063207        4.9420851500
 H        -6.1610209545        3.7483556066        3.1124708937
 H        -6.5192650759        3.2377784463        4.7169085944
 H        -0.9837370955        5.7462970617        5.0597088743
 H        -1.4876940174        4.0529001707        4.6646174375
 H        -5.4359007065        6.4460909973        5.5552340154
 H        -6.2646165599        5.2102705945        5.1985799464
 H        -5.5242586393        5.9556960645        3.7099341197
 H        -4.4561454197        4.2588593577        6.9825916219
 H        -2.6983501531        4.0306779716        6.6653756297
 H        -3.4434751810        5.6398645253        7.1287496424
 H         0.4243433046        5.1548348408        3.3303306459
 H        -0.7248890048        6.4267805350        2.6878813208
 H        -3.1716894885        3.7070294433        0.4941893686
 H        -3.5162133632        5.1311460191       -0.3623944266
 H        -1.2547626128        6.9092844502       -0.7337301898
 H        -1.0661377593        7.1526940106        0.8962357251
 H        -2.6066313895        6.3813372297        0.4861027592
 H         1.2027223168        4.5551794531       -0.4976614124
 H         0.6858212915        6.0896985993       -0.8785338697
 H         1.2807936676        5.8175896157        0.7502739016
 H        -4.7319696170        3.2251939576       -1.2625241173
 H        -3.8034094402        4.0034446181       -2.4765770035
 H        -1.0411478498        2.6936389039       -4.3741729299
 H        -1.6639841233        4.0697166660       -5.2403354138
 H        -1.9993557269        4.0981901093       -3.6523237285
 H        -1.9922270029        0.4642460375       -4.3715128936
 H        -3.6187548603       -0.2253559397       -4.5672211679
 H        -2.6902029320       -0.3130340968       -2.9946688635
 H        -5.5107927163        0.6013208388       -2.8370870530
 H        -5.6807598132        2.3626667648       -2.9426502764
 H        -5.5194512038        1.3759504906       -4.3909504912
 Na       -1.9289449117        1.3561903333        0.9175470172
