155

 C         6.5080179320       -5.4431082749       -3.1133333176
 C         5.3741467300       -6.4841236001       -3.2297625228
 C         4.1610634301       -6.4093901849       -2.2640847392
 C         2.8772364062       -5.7490182204       -3.0036738011
 C         2.5290072905       -6.2581216441       -4.4374250192
 C         3.7496122083       -7.8194744381       -1.8848700887
 C         4.2905784045       -5.5255997820       -0.9415793098
 O         5.4589870404       -7.2802092573       -4.0710460415
 O         2.1229044589       -5.0526763124       -2.4411530973
 C         2.3670366390       -5.0459391111       -5.4352656912
 C         3.5163382132       -4.1253495230       -5.5338859244
 C         3.3728627618       -2.7128442227       -6.2036463735
 C         3.2147509004       -1.6316186080       -5.1429120955
 C         3.4776838856       -1.9012580579       -3.6794776832
 O         4.5560244060       -4.4250638347       -4.9609538991
 O         2.8651704949       -0.5111901087       -5.4914190229
 C         4.7202477337       -2.3959515357       -6.8576934999
 C         2.3289826074       -2.5283832346       -7.2450916855
 C         3.4217226713       -0.6071502030       -2.8039038354
 C         2.6010993731       -0.6824995034       -1.4797850574
 C         2.5407297513        0.6568908884       -0.5687337139
 C         1.5167549520        0.3453158945        0.6202260240
 C         2.0300177537       -0.4684592767        1.7530022586
 C         3.8783532782        1.0120490294       -0.1603985030
 C         1.9288826066        1.7842325367       -1.3454409975
 O         2.2116157044       -1.7515874249       -1.1070082833
 O         0.3480293846        0.5912980408        0.5193891967
 C         0.9803718792       -1.5317147615        2.1991049340
 C         1.7032032955       -2.0557144279        3.4372949530
 C         0.8855203166       -3.2074387678        4.2862638529
 C        -0.5970816794       -2.8035596188        4.1561938166
 C        -1.1043559352       -1.6156554769        5.0626214667
 O         2.6191149172       -1.4905096846        3.9889199374
 O        -1.2173566753       -3.2423753851        3.2011191527
 C         1.0175822209       -4.6671528832        3.7088810313
 C         1.4361776592       -3.2266731111        5.6951632376
 C        -2.6338479804       -1.4428092055        4.7360166665
 C        -2.7901917206       -0.7436080729        3.3562257817
 C        -4.2004522589       -0.7456849562        2.6824590766
 C        -4.4939460567        0.7744444257        2.6543825816
 C        -5.1800234573        1.3778681437        3.9298088740
 C        -4.1098718237       -1.4607976284        1.2545363116
 C        -5.2837702620       -1.4783694474        3.5248751215
 O        -1.9106209774       -0.0100894256        2.9437315893
 O        -4.1496458054        1.4066091937        1.6852441655
 C        -5.5578428235        2.8962570279        3.6462562312
 C        -5.5254940245        3.8631244231        4.8241480171
 C        -5.3040080218        5.4391893527        4.5394541963
 C        -3.9573819920        5.5881729645        3.7497126543
 C        -2.4959860350        5.4072282709        4.3126390378
 O        -5.7448810690        3.5380636701        5.9568956346
 O        -4.0632892211        5.8904692846        2.5775394510
 C        -6.5875884356        5.9803692845        3.7250622305
 C        -5.1382637519        6.3578040245        5.8330759247
 C        -1.5339705316        5.6868818710        3.1852127850
 C        -1.4734699414        4.7644055647        1.9518729927
 C        -1.3567738965        5.3119201944        0.5269286594
 C        -1.8716135757        4.2859938966       -0.5204946412
 C        -3.4574626637        3.8604198865       -0.4830285788
 C        -2.1214212485        6.5657143363        0.1428785832
 C         0.2301230471        5.5874627596        0.1743470866
 O        -1.2923591599        3.5260601676        2.1164134045
 O        -1.1014971253        3.8199642053       -1.3023607365
 C        -3.7855783686        3.2282277027       -1.8371265251
 C        -2.9213171752        2.0387233621       -2.1661159242
 C        -3.1515685431        1.4555886652       -3.5990287399
 C        -2.4953506079        2.2516235679       -4.8123011239
 C        -1.4221341262        1.5415613908       -5.6154541061
 O        -2.2743378873        1.2863785457       -1.3871565762
 O        -2.8551673661        3.3963235784       -5.1425243848
 C        -2.6849225994       -0.0449680229       -3.6213549603
 C        -4.6757692584        1.5868709944       -3.8818309249
 H         6.1294802400       -4.4144981921       -2.8749478874
 H         7.1607287503       -5.5151481835       -2.2637256412
 H         7.1769365141       -5.4092452230       -3.9390332189
 H         3.3866562191       -6.7775212694       -4.8872014886
 H         1.6553624521       -6.8698851087       -4.4868097050
 H         4.6137369966       -8.3053695625       -1.4893664733
 H         3.3886601191       -8.2255949568       -2.8302529277
 H         2.9759451120       -7.8249368520       -1.1371615445
 H         4.5046550373       -6.1913876394       -0.0129620853
 H         5.0710143374       -4.7893188715       -1.0477145846
 H         3.3331922700       -4.9873017994       -0.7179739111
 H         2.0824570620       -5.3912587196       -6.4000287867
 H         1.5379235083       -4.3428820603       -5.1861419343
 H         2.6151698974       -2.4435212751       -3.2451547420
 H         4.3323873020       -2.4563153146       -3.5860857384
 H         5.5204075795       -2.5895089859       -6.2741185013
 H         4.8680439060       -1.2998928234       -7.0697193813
 H         4.6755138250       -2.8900353115       -7.8334416153
 H         2.3242507104       -1.5044863276       -7.5911325850
 H         2.4112408423       -3.2707723035       -8.0896326790
 H         1.3374755781       -2.7842741134       -6.7802115357
 H         2.7905799532        0.0578150635       -3.3968591058
 H         4.4568573468       -0.2107117092       -2.6046252941
 H         3.0378242480       -0.8341425212        1.3849784737
 H         2.2952500913        0.2169424968        2.5970266715
 H         4.6199290004        1.2455598915       -0.9954260709
 H         4.4060189828        0.1149030606        0.3322852088
 H         3.8022899987        1.9183823929        0.4272084091
 H         2.0828035082        2.7415543033       -0.8592890540
 H         2.3845581747        1.8435191987       -2.3131590357
 H         0.8781061440        1.7575176902       -1.3901693992
 H         0.0591670507       -1.0034374090        2.5350735905
 H         0.6352059667       -2.2359065147        1.3899424975
 H        -0.9997857034       -2.0740819073        6.0480971842
 H        -0.6346101102       -0.6564009724        4.7894710846
 H         2.0516095419       -4.8813411836        3.5045468222
 H         0.5021870706       -4.8657873085        2.7634535975
 H         0.6464570134       -5.4658567042        4.4157192348
 H         1.4144359993       -2.3175306019        6.2867512457
 H         0.8169979813       -3.9424054159        6.1734665379
 H         2.4868332693       -3.5931449473        5.6494987809
 H        -3.2313105406       -0.9635326492        5.4964297700
 H        -2.9728445985       -2.4807211781        4.5282508775
 H        -6.0168980254        0.8618616403        4.4528165632
 H        -4.3695584234        1.4829404038        4.6861825782
 H        -3.3019306046       -0.9579027973        0.6749885157
 H        -4.9899732963       -1.3038132558        0.6030109185
 H        -3.9202443588       -2.5358775021        1.2493037138
 H        -6.2720734006       -1.3267669160        3.1333507316
 H        -5.0344803446       -2.5395129046        3.7553701251
 H        -5.2272531259       -1.0439381782        4.5207313869
 H        -5.0908221496        3.2587463336        2.7367195922
 H        -6.6776698038        2.8379095429        3.4970747027
 H        -2.2498414596        6.0386561340        5.1499451149
 H        -2.4463382404        4.3277358922        4.6877265029
 H        -6.3254486199        6.8798547744        3.1181191251
 H        -7.4049292152        6.4341246073        4.4126520431
 H        -7.0720707958        5.2719305104        3.1209344647
 H        -5.9221325662        6.1141265481        6.5385156252
 H        -4.1544662876        6.3177018669        6.3118520550
 H        -5.3553347528        7.3861522773        5.5968148569
 H        -0.4566213215        5.8356683516        3.4082648124
 H        -2.0246100153        6.5749410981        2.7328891684
 H        -3.6329545522        3.0950878778        0.3133721878
 H        -4.1826900577        4.6704482791       -0.3490407992
 H        -1.9449674373        6.7240205097       -0.9505331399
 H        -1.7438505345        7.4725782287        0.5504687117
 H        -3.2384253197        6.4565613212        0.2994772685
 H         0.6206421823        5.9007749138        1.0664393592
 H         0.6558907900        4.6787774817       -0.1419270301
 H         0.2488483569        6.1579642926       -0.7004217344
 H        -4.8378799478        2.9395459422       -1.8197875514
 H        -3.6356136260        3.8335346106       -2.6216072408
 H        -1.6539127472        0.5335283917       -5.8567111421
 H        -1.2744675985        2.0689515673       -6.5587322871
 H        -0.5320542848        1.3360245607       -5.0514600675
 H        -1.6205544408       -0.2674186876       -3.5781114141
 H        -3.1941294537       -0.5387898902       -4.4869006953
 H        -3.0831727108       -0.4256899919       -2.6844480407
 H        -5.2445793579        1.0950017679       -3.1571216279
 H        -4.9668185115        2.6570542497       -3.9059045382
 H        -4.8644091253        1.0997806979       -4.8093565850
 Na       -1.8353754586        1.4652903026        1.0189691841
