155

 C         6.6382081912       -5.7826659670       -2.2643032948
 C         5.6002712879       -6.6576670963       -3.0043085552
 C         4.0415915393       -6.5197617468       -2.6474338708
 C         3.3193065503       -5.5309680572       -3.5719793306
 C         3.2701070770       -5.8779033245       -5.0977914558
 C         3.5304027765       -8.0022415173       -2.7662773587
 C         3.9068797348       -6.0928562113       -1.1716056462
 O         5.8945049132       -7.3923806413       -3.8460874219
 O         2.9636462615       -4.4459991906       -3.2496184565
 C         2.9334067248       -4.6344820453       -5.9252032654
 C         4.0978340306       -3.6303136166       -5.8618394723
 C         3.7349934483       -2.1866494147       -6.3581201685
 C         2.8474810033       -1.5038922479       -5.1812087183
 C         3.5298442150       -1.2892729570       -3.8342916197
 O         5.1761998463       -3.9441823258       -5.3222260666
 O         1.6970603341       -1.2379669991       -5.4176332327
 C         4.9943622170       -1.2286924916       -6.6602426416
 C         2.8157031190       -2.2746492625       -7.6420589974
 C         2.5930945373       -0.3814046801       -2.9838097643
 C         3.1122667304       -0.4472619431       -1.5570982986
 C         2.5404388572        0.6429269774       -0.5851193607
 C         1.6709665521        0.1760305216        0.6415625386
 C         2.0691556431       -1.1388062327        1.2901597499
 C         3.8497869493        1.0629790596        0.1529581577
 C         1.8354705619        1.8749086276       -1.1255134408
 O         3.7821666124       -1.3154937600       -1.1151456717
 O         0.6614735379        0.7942722356        0.9290498788
 C         1.0753140038       -1.6138638127        2.3553435527
 C         1.6230775983       -2.1845290713        3.6317728016
 C         0.7664506905       -3.4102433232        4.2735304688
 C        -0.6892339724       -2.8844308310        4.0793877624
 C        -1.1502976122       -1.6493145216        5.0393300617
 O         2.6410539789       -1.8503255963        4.1899066984
 O        -1.5483740678       -3.1958899958        3.2815366200
 C         1.1836066731       -4.7046441074        3.5532531330
 C         1.1659066932       -3.4464874791        5.7853448156
 C        -2.6173396329       -1.1402085222        4.8818908304
 C        -2.7709978019       -0.4939397804        3.4440727826
 C        -4.1610263981       -0.4989267967        2.7111742469
 C        -4.7605063443        0.9528510034        2.5695320947
 C        -6.2278597544        1.3644310082        2.8886293896
 C        -4.0661273104       -1.0745085112        1.2553891463
 C        -5.2034874648       -1.4220350884        3.4867386637
 O        -1.8063885222        0.1348772670        3.0012576952
 O        -4.0879988489        1.7995579031        2.0133326287
 C        -6.5152616041        2.8854133340        2.6904263372
 C        -5.9221116092        3.7441213229        3.8854019843
 C        -6.0279623734        5.3432517044        3.8588636992
 C        -4.7104580984        5.8547733443        3.2844544459
 C        -3.4033265353        6.0987478097        4.0962452819
 O        -5.3927795181        3.1302169461        4.7700379593
 O        -4.7278691937        6.1082856594        2.0880842358
 C        -7.1847876790        5.7697332959        2.9393028817
 C        -6.3815584274        5.8567531369        5.2745338087
 C        -2.1920982249        6.2368622058        3.1921781946
 C        -1.9291366216        5.0151398979        2.2663175031
 C        -1.2361017449        5.1225693071        0.9008229906
 C        -1.8127005298        3.9856710292       -0.0573526477
 C        -3.3813982111        3.9380785231       -0.3969979406
 C        -1.5941680844        6.4271945486        0.2163125380
 C         0.3424915205        4.9325873311        1.0023104821
 O        -2.1818633183        3.9066001295        2.6757039463
 O        -1.0140495826        3.3576258734       -0.7144690793
 C        -3.6805256561        3.0522092915       -1.7307479159
 C        -2.9889982997        1.6979056184       -1.7671473262
 C        -2.9825155438        0.8985796569       -3.1542515185
 C        -1.6725282050        1.5952887957       -3.8789692925
 C        -0.4972078455        0.6828577361       -4.1594319544
 O        -2.4967562330        1.1411952911       -0.7770458744
 O        -1.7856614697        2.7797785703       -4.1380181894
 C        -2.8340525023       -0.5353578701       -2.8393809138
 C        -4.2537152630        1.1624226742       -3.9760738231
 H         6.7826906320       -4.7969442840       -2.6767814359
 H         6.3682159897       -5.5639441399       -1.1887354570
 H         7.6143720058       -6.1698763616       -2.2067991259
 H         4.2282281301       -6.2661281597       -5.4212517477
 H         2.5886086618       -6.6623329046       -5.4316450102
 H         4.1687997494       -8.6541517916       -2.2248232999
 H         3.5319380903       -8.2179835937       -3.8348048742
 H         2.5016052073       -8.0272720281       -2.3932890878
 H         4.7605250345       -6.3806615774       -0.5484253980
 H         3.8805720950       -5.0153022998       -0.9610219505
 H         2.9481000480       -6.4646900998       -0.7399957138
 H         2.6865968023       -4.9043565911       -6.9735473783
 H         2.0606238627       -4.1698930800       -5.4840130850
 H         3.8675509343       -2.1807903099       -3.4029416335
 H         4.4331268893       -0.6665481421       -4.0480592572
 H         5.8209472377       -1.6922664561       -6.3156971720
 H         4.8046157544       -0.2289872613       -6.1753374023
 H         5.1478307629       -1.0918981730       -7.7268198651
 H         2.6323413244       -1.2216889193       -7.8684247792
 H         3.2821834703       -2.6836407922       -8.5866445049
 H         1.8719159658       -2.7663813898       -7.3369287527
 H         1.4970644570       -0.5574157394       -2.8479268059
 H         2.5723059352        0.5968748104       -3.4522036519
 H         2.0421032438       -1.9041549785        0.4700168979
 H         3.1140210794       -1.1454117678        1.7103048668
 H         4.4979711855        1.6586150488       -0.5803472786
 H         4.5770523720        0.3446421355        0.6196975924
 H         3.6452883314        1.6365629097        1.0139698604
 H         2.0094246940        2.7243457036       -0.4482528161
 H         2.0276582492        2.1248225402       -2.1658003153
 H         0.7901761611        1.6326868357       -1.1597869290
 H         0.4286683566       -0.7402121254        2.6630629673
 H         0.3271524658       -2.3189167195        1.9280739211
 H        -0.9653164367       -2.2069165801        6.0684962110
 H        -0.4056257391       -0.8777790043        5.1247987388
 H         2.2546704104       -4.9585043216        3.6032162584
 H         0.9368252580       -4.6253306049        2.4519197955
 H         0.5826450114       -5.5454018968        3.8852829699
 H         1.2166143009       -2.4888958633        6.2895132512
 H         0.5736649813       -4.0997552347        6.3804554176
 H         2.2320768342       -3.8337625843        5.8932221071
 H        -2.8353550673       -0.4078013207        5.6803595913
 H        -3.4370247767       -1.8575878117        5.0718563373
 H        -6.8246146389        0.8131992132        2.1634168950
 H        -6.4593433657        1.0170283970        3.8980342732
 H        -3.6197957430       -0.3351713329        0.5684728741
 H        -5.0347845979       -1.3324784488        0.8163581678
 H        -3.3398125049       -1.8885478522        1.0953288165
 H        -6.1855007446       -1.3244170475        3.1095542780
 H        -4.8113199211       -2.3979637588        3.4074952325
 H        -5.3706066691       -1.0471544875        4.4872110585
 H        -6.1624460961        3.3791603099        1.7309870555
 H        -7.5747986683        2.9826903575        2.7453358166
 H        -3.4537567340        6.9792091842        4.8313414838
 H        -3.2099944211        5.1545567128        4.6923860873
 H        -7.0849030827        6.8768048758        2.7188711016
 H        -8.0857316094        5.4348152159        3.5721749280
 H        -7.1795100392        5.2715354635        2.0356518244
 H        -7.0872490768        5.2079141471        5.7961745380
 H        -5.5460746221        5.6649551167        5.9211597978
 H        -6.5819263856        6.9054698389        5.3549901750
 H        -1.2682736802        6.3790874667        3.7011000400
 H        -2.2327563655        7.1688045624        2.6003671165
 H        -3.8994012763        3.5061325307        0.4590269658
 H        -3.7504814206        4.9692137161       -0.7119605126
 H        -1.2248365856        6.5251320154       -0.7610600574
 H        -1.3292379091        7.3121968933        0.8159952250
 H        -2.6612782124        6.5212044802       -0.0131217893
 H         0.5612334312        4.1410299859        0.3659476139
 H         0.8853289706        5.8623141278        0.8573234882
 H         0.6018336281        4.5600003168        1.9187023135
 H        -4.7378454241        2.8193580740       -1.8718771651
 H        -3.3429587157        3.5602616644       -2.6470469644
 H        -0.7797850003       -0.2912351391       -4.4849482667
 H         0.1663309141        1.0353734219       -4.9741293742
 H         0.2078002836        0.7004464279       -3.3953347586
 H        -1.9127035660       -0.8319112855       -2.4196788199
 H        -2.9885572508       -1.1637643257       -3.7043856239
 H        -3.7017095698       -0.9236029452       -2.2213031970
 H        -5.1407637831        1.2447215157       -3.3574640261
 H        -4.1362370047        2.1147250480       -4.5625732460
 H        -4.4395181193        0.3282363180       -4.6555586970
 Na       -1.8287854204        1.9191485524        1.4607532746
