155

 C         6.3892856404       -5.5488937072       -2.5268665522
 C         5.5788003034       -6.8166415368       -2.8796593338
 C         4.0211659170       -6.7558335911       -2.9174914376
 C         3.6848996854       -5.4229620664       -3.7556638827
 C         3.9997647450       -5.5408180070       -5.2491103219
 C         3.3856136522       -7.9869970977       -3.5605089735
 C         3.4550624098       -6.5728491312       -1.4607145842
 O         6.2346913628       -7.7514398013       -3.2364752279
 O         3.2102881178       -4.4727082463       -3.1583544978
 C         3.4118987610       -4.2985543205       -6.0073876560
 C         4.4318791194       -3.1307075634       -6.0557419939
 C         3.7192123094       -1.7274741642       -6.1889570133
 C         2.9169797329       -1.4848045576       -4.9067814905
 C         3.6049577791       -1.2285234173       -3.6038521049
 O         5.6435375427       -3.2489583802       -5.8578451001
 O         1.7199224721       -1.4540382451       -4.9295188860
 C         4.9691119193       -0.7670966785       -6.3692373849
 C         2.8273165751       -1.7446885888       -7.4685597523
 C         2.5585262893       -0.8834308137       -2.5157213213
 C         3.3944725486       -0.3952093794       -1.3892890048
 C         2.8985501863        0.8552818602       -0.5338701625
 C         1.7080457603        0.2862335161        0.3961053326
 C         2.0423859178       -0.7143128808        1.5405820430
 C         4.2121887567        1.2737306800        0.4282961407
 C         2.4859373169        2.0440985675       -1.4755813257
 O         4.4936224271       -0.8259854055       -1.0929281362
 O         0.5668670816        0.5750317161        0.1470865491
 C         0.9207255382       -1.6234194872        2.0069253868
 C         1.3176580056       -2.2311950650        3.3683179294
 C         0.4146097345       -3.2669628709        4.2840732075
 C        -1.0228460937       -2.7477668634        4.3771165943
 C        -1.3597128551       -1.6282567749        5.3115480702
 O         2.2733576430       -1.8211348157        3.9274834120
 O        -1.8545414266       -3.1737073896        3.6402280976
 C         0.4488528208       -4.5116849228        3.4287492855
 C         1.0241124894       -3.4733811758        5.6956906036
 C        -2.7717327259       -1.0428520237        5.1434679763
 C        -2.9120565611       -0.3274609634        3.7662268535
 C        -4.1955602682       -0.6643047026        2.9459358063
 C        -4.8912624291        0.7085851281        2.5156881071
 C        -6.3434742531        1.0293619125        2.9332498210
 C        -3.8252806093       -1.1030902009        1.5052735009
 C        -5.1503486552       -1.7980483110        3.5416298498
 O        -2.0650346402        0.4267565160        3.3436686295
 O        -4.2423634901        1.6088927460        1.9818572983
 C        -6.7735138681        2.4396654113        2.6577232642
 C        -6.1919421136        3.5310971938        3.6020715986
 C        -6.4548531896        5.0689396235        3.4250662269
 C        -5.0903975421        5.5098394001        2.8396396203
 C        -3.8846552786        5.6717593382        3.8217157364
 O        -5.3949879909        3.2698850619        4.4554489020
 O        -4.9081929992        5.4604831277        1.6364916671
 C        -7.5458523465        5.3890710720        2.2898691892
 C        -6.7451155301        5.7025237902        4.8030631270
 C        -2.5576437915        5.9903961817        3.0644551270
 C        -1.9188299716        4.8935078853        2.2368417085
 C        -1.0396400033        5.3553299623        0.9979102060
 C        -1.4532462858        4.1756873784       -0.0836853525
 C        -2.9297901791        4.1325602862       -0.5234355511
 C        -1.3229840650        6.7172556832        0.3902240218
 C         0.3949990943        5.2696595931        1.3758096548
 O        -2.0307885809        3.7031886077        2.3681829616
 O        -0.5922565332        3.3256320098       -0.3669395004
 C        -3.1690448778        3.4175549767       -1.8895032829
 C        -3.0746902593        1.8827435411       -1.6422269055
 C        -3.0017317875        0.9276189405       -2.7761264061
 C        -1.6795417935        1.3075965494       -3.6501857688
 C        -0.4904903508        0.4588552153       -3.4986488654
 O        -3.0985300065        1.5457558154       -0.4935634023
 O        -1.7809754028        2.2942699989       -4.3881870783
 C        -2.9774996545       -0.5627754216       -2.2290220557
 C        -4.1494031865        1.0303794389       -3.7211142688
 H         6.3741853686       -4.9193787497       -3.3694237011
 H         5.9411927972       -4.8256524089       -1.7823212826
 H         7.4196520883       -5.6805570958       -2.2268221879
 H         5.0815655852       -5.4992641535       -5.4864091628
 H         3.6590985323       -6.5337773324       -5.6046692044
 H         3.4552130627       -8.8074062441       -2.8725194303
 H         3.9230285292       -8.2264523460       -4.4608672826
 H         2.3981882080       -7.8588597335       -3.7373188005
 H         3.9656786027       -7.2235345424       -0.7906869119
 H         3.6896974440       -5.5946826359       -0.8866085550
 H         2.3817340492       -6.8249481199       -1.4789416806
 H         3.1974935858       -4.5595651103       -7.0332624793
 H         2.5697310024       -3.8750848218       -5.4561966147
 H         3.9653366153       -2.2518574736       -3.3244684844
 H         4.4945385809       -0.6342449491       -3.6566810183
 H         5.3509359246       -0.6300760040       -5.3755372935
 H         4.6478769035        0.1978531947       -6.7227478359
 H         5.6126694495       -1.1747707133       -7.0604359882
 H         2.1092083758       -0.8599583154       -7.4838672851
 H         3.4809170653       -1.8571014986       -8.3430693110
 H         2.1908463636       -2.6494883814       -7.4410568616
 H         1.8925822935       -1.7013252591       -2.2458024409
 H         1.8540731625       -0.0494787544       -2.7914370387
 H         2.9101296502       -1.3633389522        1.4542377357
 H         2.2557821104       -0.0960937822        2.4490264687
 H         5.1321795902        1.6672786795       -0.0456807292
 H         4.5805917737        0.5058434841        1.0730875541
 H         4.0537936580        2.1891401383        1.1189539641
 H         1.8949484435        2.6688472174       -0.8523184893
 H         3.3576191340        2.5571584542       -1.9070103253
 H         1.7687568335        1.6710290689       -2.2306015822
 H         0.0157365464       -0.9906291312        2.3560509443
 H         0.6070135285       -2.4614447843        1.3163442299
 H        -1.1299338891       -1.9977555017        6.2583753380
 H        -0.5092141951       -0.9133946554        5.2643641345
 H         1.5127541352       -4.8740803559        3.2365415066
 H        -0.0677691980       -4.3480211299        2.4723295830
 H        -0.1329187587       -5.2546613075        3.8801489246
 H         1.2904120478       -2.5366440147        6.1645750146
 H         0.3546146328       -3.9789667473        6.4225194038
 H         1.9067248265       -4.0551172677        5.6962399867
 H        -2.9899331197       -0.4129780801        6.0775367550
 H        -3.5370709063       -1.8359506359        5.1105402786
 H        -7.0323396019        0.3590697612        2.4051719690
 H        -6.4295696903        0.7742918736        4.0054490484
 H        -3.2161065273       -0.3659057544        1.0207745783
 H        -4.5799185241       -1.2135822826        0.7543909055
 H        -3.4038868320       -2.1064571187        1.5167058349
 H        -5.9513055108       -1.8492248597        2.7495964182
 H        -4.6920229388       -2.7829734705        3.5880214804
 H        -5.5216533617       -1.5328481594        4.5571921580
 H        -6.6785573124        2.9452130726        1.6996009198
 H        -7.9356577709        2.4318651459        2.7430062815
 H        -3.9911973526        6.5811850535        4.4912099339
 H        -3.9175061385        4.8294175341        4.5550038831
 H        -7.7959191736        6.4400044028        2.3937653999
 H        -8.3365636133        4.6582820350        2.2911907314
 H        -7.0198128024        5.1425473968        1.3403760215
 H        -7.7468131078        5.8587666577        4.9746895195
 H        -6.3358496709        5.0823459238        5.6486298350
 H        -6.3226138519        6.7669990900        4.9504511541
 H        -1.8239544915        6.2412841379        3.8271531799
 H        -2.5916322024        6.9270327540        2.5710958286
 H        -3.5246394041        3.4961765210        0.1998916067
 H        -3.3684945177        5.1156252819       -0.4453584659
 H        -0.6814343836        6.8971324906       -0.4898250456
 H        -0.8905453194        7.5495572157        0.9880869301
 H        -2.3437632683        6.9288975801        0.1796395858
 H         0.7594173887        6.2616561075        1.4972500473
 H         0.5693607189        4.9127567899        2.3580181520
 H         0.9450734426        4.5643789768        0.8194057870
 H        -4.1851524430        3.5452948583       -2.3011854765
 H        -2.4564912905        3.8996223841       -2.7207217064
 H        -0.4729904111       -0.3581342789       -4.2013308511
 H         0.4304720351        0.9989143517       -3.7721489392
 H        -0.4678500972        0.0588982168       -2.5031652549
 H        -2.1196672741       -0.8079131801       -1.5513775517
 H        -2.8882076443       -1.3212741497       -2.9977848240
 H        -3.7991696388       -0.7712185474       -1.5751145355
 H        -5.1256520156        1.0745247943       -3.2279861018
 H        -4.0582133338        1.8516936433       -4.3371674557
 H        -4.1119951584        0.1161210267       -4.3096180002
 Na       -1.5640767781        1.5997249933        1.4182190502
