155

 C         6.4794948724       -5.6606528204       -2.5002230689
 C         5.8133301037       -6.9335761026       -2.8308838986
 C         4.1733098200       -6.8000044365       -3.2106058846
 C         3.7606162317       -5.5078881715       -4.0389176433
 C         4.1853147163       -5.4346115589       -5.5326165627
 C         3.6730993785       -8.1450215328       -3.9182139759
 C         3.5266202527       -6.7580647600       -1.8421034249
 O         6.2225063896       -7.9678360974       -2.4929641246
 O         3.1224707117       -4.6644633767       -3.4921765664
 C         3.5290774224       -4.1952574367       -6.2796045315
 C         4.3833841306       -2.9410460891       -6.0881118289
 C         3.7234308238       -1.5258495535       -6.1588899684
 C         3.0006866931       -1.2917663831       -4.7822988044
 C         4.0333948304       -1.1433562314       -3.5639930477
 O         5.6045527693       -2.9960225356       -5.8451394547
 O         1.8109611307       -1.2015826831       -4.6710011566
 C         4.8034281367       -0.4317064316       -6.2953078918
 C         2.7737699122       -1.4866468746       -7.3467695277
 C         3.0600406974       -0.9755460199       -2.1994328761
 C         3.7005242877       -0.1796500238       -1.0378296251
 C         2.8687821746        1.0085521448       -0.3544178579
 C         1.6054278284        0.3969346432        0.4021851313
 C         1.8920001318       -0.4800248173        1.7490977191
 C         3.6315379480        1.6338935223        0.8308672420
 C         2.5035036469        2.0289570440       -1.5230435710
 O         4.6736559936       -0.4570992056       -0.4356664360
 O         0.4390761966        0.6108058787        0.1452706183
 C         0.8018961493       -1.3080456403        2.3730837108
 C         1.1546668807       -1.9502498307        3.6663694688
 C         0.1793970192       -3.1560351414        4.2643389992
 C        -1.2059050745       -2.6102833742        4.5401207256
 C        -1.3712206796       -1.4905179539        5.5424065197
 O         2.1734158262       -1.7626245560        4.2622265248
 O        -2.0999255971       -2.8866623707        3.7883466280
 C         0.1098755946       -4.1908270515        3.1065366440
 C         0.6218381435       -3.8653450141        5.6192624205
 C        -2.7555272791       -0.8182654673        5.2119202951
 C        -2.8058612808       -0.6115970242        3.6790510230
 C        -4.0495132941       -0.8876906262        2.8555320494
 C        -4.5940687271        0.5124420632        2.6024838466
 C        -6.1251668117        0.8977170532        2.9833602602
 C        -3.7520869829       -1.5475489893        1.4674832981
 C        -5.0733054466       -1.7268541870        3.6664265626
 O        -1.8609804875        0.0508730023        3.2537146263
 O        -3.8945291999        1.2894789361        1.8986972018
 C        -6.6930082139        2.1822768921        2.5454940663
 C        -6.4728600783        3.2852646706        3.6196993999
 C        -6.4378466533        4.7201292578        3.1279738598
 C        -5.0442438219        5.2184823192        2.6580231736
 C        -3.8847977736        5.4091153284        3.6598442858
 O        -6.4210865019        2.9626830376        4.7832342682
 O        -4.7766330834        5.5269533458        1.4998927028
 C        -7.3647689775        4.8908438377        1.9081824771
 C        -6.7872428337        5.6081441931        4.3509760273
 C        -2.6318577571        5.9226211979        3.0251338717
 C        -1.8997718788        4.8438997897        2.1856875835
 C        -1.0022977062        5.3263445432        0.8791423361
 C        -1.3608999312        4.3756979478       -0.2506207583
 C        -2.5252309776        4.5796323972       -1.1087113565
 C        -1.2227322766        6.8060717763        0.5375043234
 C         0.5534470364        5.1432976871        1.3772234060
 O        -2.0505639276        3.7161203474        2.5523731738
 O        -0.7352036143        3.2973707390       -0.2694336916
 C        -2.9537427315        3.4714466960       -2.1335858032
 C        -2.9047701769        1.9996451936       -1.6714895501
 C        -3.1363351287        0.9043564070       -2.8104015744
 C        -1.8954288728        1.0928936557       -3.7686839478
 C        -0.6581027609        0.3071554078       -3.5382973548
 O        -2.7654576022        1.6207447841       -0.5485888636
 O        -1.8591180916        2.0488895497       -4.4928571729
 C        -3.2791966015       -0.5641501484       -2.3860480900
 C        -4.4804596774        1.3087072899       -3.5383546389
 H         6.6159468672       -5.0274348480       -3.3174393757
 H         5.7874162591       -5.0173037908       -1.8316375935
 H         7.4314657764       -5.7863107898       -2.0461601801
 H         5.2729577104       -5.4038679198       -5.5238480570
 H         3.8967674350       -6.3178260943       -6.1120051773
 H         3.9543479944       -9.0389501100       -3.4057520580
 H         4.1260692814       -8.3315965903       -4.8960990749
 H         2.6294699535       -8.0152802988       -4.0930201470
 H         3.6721488253       -7.6188227523       -1.2331812479
 H         3.7954764528       -5.7866092236       -1.3206726997
 H         2.4327744138       -6.6898000699       -1.8464133700
 H         3.4213333949       -4.3669414968       -7.3585271982
 H         2.5734622219       -4.0658219817       -5.7644033927
 H         4.7866393532       -1.9032614743       -3.5463860803
 H         4.5347178350       -0.2298622999       -3.8388619773
 H         5.6251724460       -0.8083715055       -5.8552235961
 H         4.4293027411        0.5102082112       -5.8019907513
 H         5.0625704974       -0.2831466197       -7.3157333616
 H         2.6118432867       -0.4173201180       -7.5803233923
 H         3.2480459700       -1.9406606195       -8.2075348395
 H         1.8147636397       -1.9575484377       -7.2481622001
 H         2.8042334831       -1.9922746315       -1.8945158487
 H         2.1928152171       -0.4215452760       -2.6635801392
 H         2.7455387383       -1.1307581467        1.5909927657
 H         2.2526621784        0.1526420666        2.6066241837
 H         4.3912305401        2.4283375488        0.4699100911
 H         4.3384692156        0.9166516143        1.3533731892
 H         3.1828022031        2.2974739343        1.5252820506
 H         2.9205525003        2.9730220496       -1.2139182756
 H         3.1861339448        1.7243969767       -2.3343399426
 H         1.4243274757        2.0762915517       -1.6960490172
 H        -0.1338712074       -0.7072096200        2.5640295935
 H         0.5654978841       -2.1932225451        1.7579807883
 H        -1.3181657306       -1.8801228596        6.5610811827
 H        -0.4418721726       -0.9316793455        5.3965918378
 H         1.1085656631       -4.6348492368        2.7895103130
 H        -0.4317110580       -3.6692369554        2.2686808601
 H        -0.4896048913       -4.9925104990        3.4608434141
 H         0.3665610194       -3.3088011392        6.5218273319
 H         0.2274924649       -4.8817541771        5.8079251857
 H         1.7244881629       -4.0013701601        5.6443252087
 H        -2.7988992970        0.2529106297        5.5848310482
 H        -3.6110357617       -1.4375139208        5.5400149726
 H        -6.6744852813        0.1219674357        2.4687521242
 H        -6.1915359033        0.7440851880        4.0524170714
 H        -3.1198483782       -0.8578459921        0.8954229569
 H        -4.5499477118       -1.7596925945        0.7639668826
 H        -3.1983443233       -2.5052257622        1.5940938643
 H        -5.8462390043       -1.8488786666        2.9037119299
 H        -4.8386357544       -2.6694002141        4.0063592306
 H        -5.3795645309       -1.1919345225        4.5653552380
 H        -6.3500494450        2.4659783419        1.5560792059
 H        -7.8256905007        2.2279751657        2.4692134622
 H        -4.3152230826        6.1499938322        4.4593884268
 H        -3.5955004561        4.5138701258        4.2889130195
 H        -7.3488564076        5.9779880860        1.6545209197
 H        -8.4313398682        4.7144900807        2.2575133400
 H        -6.9993281426        4.3367025799        1.1600232395
 H        -7.7729897849        5.3326711062        4.6555736063
 H        -6.0268047946        5.6300258899        5.1132627741
 H        -7.0334543470        6.6516973152        4.0990815070
 H        -1.9260033126        6.1479686398        3.8214150804
 H        -2.8313198527        6.8074051534        2.4751233432
 H        -3.3768096318        4.7780477597       -0.3960453030
 H        -2.5506675620        5.5655978951       -1.5246215433
 H        -0.4503480906        7.0713764049       -0.1803857100
 H        -1.2472466619        7.5404190362        1.3885265544
 H        -2.1715264995        6.9369393536        0.0801057776
 H         0.5807972465        5.0892925086        2.4128740997
 H         0.9602035798        4.1598449222        1.1141870372
 H         1.2261764373        5.8378716003        1.0294501137
 H        -4.0216504218        3.6861281502       -2.3476253812
 H        -2.4594060523        3.7201590625       -3.2098295433
 H        -0.7390319921       -0.6624860502       -3.1104836955
 H        -0.0694205695        0.2746183650       -4.4857344788
 H        -0.2048371214        0.7940947440       -2.7135327566
 H        -2.5279968866       -0.8018649553       -1.6125354666
 H        -3.1206100168       -1.2723072495       -3.1829729800
 H        -4.2775004559       -0.8046084978       -1.9925423428
 H        -5.3085904775        1.2109374559       -2.7800285526
 H        -4.5586532156        2.2560184785       -4.1164189286
 H        -4.5930443775        0.4962201825       -4.2872734219
 Na       -1.5655934336        1.6175926477        1.4312273711
