155

 C        -3.1024046702      -10.2022510137       -0.8182503223
 C        -2.8166263307       -8.7791895442       -0.0548116432
 C        -4.0178758778       -7.6494363545       -0.1974420557
 C        -3.5128308174       -6.1978616707        0.2853842605
 C        -3.4609327817       -6.1019397714        1.7690778308
 C        -4.4471869345       -7.4652125432       -1.6719393708
 C        -5.3066034465       -8.1326299238        0.5677499766
 O        -1.8710010235       -8.4417397727        0.5626828637
 O        -3.3592673766       -5.2951174092       -0.5340255455
 C        -3.3081391888       -4.7802837142        2.5054854271
 C        -4.5059741767       -3.8577568572        2.3253266995
 C        -4.4681370270       -2.4023891355        2.7542526163
 C        -3.6410713324       -1.7631473471        1.5383286802
 C        -4.4174030540       -1.3640433010        0.3009811673
 O        -5.4381032681       -4.2476569880        1.6251630952
 O        -2.3958344803       -1.6425707742        1.6852235485
 C        -5.8473982724       -1.7927616326        2.8383600402
 C        -3.7723746121       -2.1972698566        4.1004838124
 C        -3.5228568410       -1.7146030162       -0.9850794233
 C        -2.3518536601       -0.8307282713       -1.4132418711
 C        -1.0976868482       -1.7352166296       -1.9412236210
 C        -0.0140894384       -0.7855108133       -2.5983157413
 C         1.1454992023       -1.4402111853       -3.3539740971
 C        -0.4372087907       -2.3309518871       -0.6069765396
 C        -1.5682735400       -2.8360128579       -2.8695946338
 O        -2.4115160119        0.3880415060       -1.4286825331
 O         0.1076215829        0.4648425416       -2.5354502984
 C         1.2808714080       -0.8231195066       -4.7747525896
 C         0.2797050097       -1.4195405381       -5.9184674901
 C         0.2380254065       -0.8587695592       -7.3939315315
 C        -0.6694201914        0.4489904928       -7.3921437953
 C        -2.1263623361        0.3022599736       -6.9783417928
 O        -0.3903312206       -2.3618429656       -5.6325957947
 O        -0.1021309587        1.4834354117       -7.6721794466
 C         1.6147863901       -0.5841580002       -8.0108306811
 C        -0.4104689977       -1.8771121470       -8.3384342706
 C        -2.7886164981        1.6504737882       -6.8926211132
 C        -2.4763662797        2.4604603441       -5.4854342594
 C        -2.8510535442        3.9574880004       -5.3061566230
 C        -2.6489726758        4.2644283725       -3.7306538795
 C        -2.0773258315        5.6492524466       -3.3312949784
 C        -1.8495381200        4.8909170964       -6.0950022358
 C        -4.2884449058        4.1268410457       -5.7137354067
 O        -1.9669063243        1.7999778801       -4.5909295609
 O        -3.2235314659        3.5247929005       -2.8952217653
 C        -1.5194500723        5.6921270957       -1.8866942769
 C        -0.0665207070        5.1650718049       -1.5525897504
 C         0.5116754193        5.2899858594       -0.1285552961
 C        -0.0070538618        3.9823891085        0.6625546761
 C         0.1533091504        3.9708990683        2.2831757603
 O         0.4946221058        4.4146249455       -2.3110033678
 O        -0.6027036340        3.0807106753        0.1350005189
 C         2.0066357016        5.2948255765       -0.4588193994
 C         0.1300760014        6.6575462886        0.7021580160
 C         1.5385096521        4.2752221896        2.8689253313
 C         2.4161746263        2.9444031972        2.7515246523
 C         3.8633267007        2.9710129676        3.2651183051
 C         3.9343175187        2.6029087625        4.9265249575
 C         3.4441125032        1.2115757770        5.3587879264
 C         4.6442972137        1.9412399961        2.4898256164
 C         4.5846734918        4.3335020054        3.0390134501
 O         1.9199204714        1.9477199531        2.2666311191
 O         4.1930392233        3.4979439560        5.6975738760
 C         4.0437254092        0.8210673983        6.7044666502
 C         5.5739610091        0.5306426734        6.4462180224
 C         6.4326138832       -0.1281173755        7.6439417657
 C         6.2643336262        0.9588485946        8.7826219087
 C         7.5009913960        1.5314497575        9.3876550074
 O         6.1622250582        0.9764969934        5.4969821764
 O         5.2000592248        1.2983644031        9.3477263848
 C         5.7568991519       -1.4536124529        8.0777958346
 C         7.9063108121       -0.3801936282        7.2089959149
 H        -2.5256922427      -10.4802552128       -1.6954998060
 H        -2.8468628631      -11.0619630592       -0.2276784257
 H        -4.1453865327      -10.2451085110       -1.0408579897
 H        -4.3626291173       -6.5439661970        2.2826071012
 H        -2.7040471616       -6.8457873006        2.0417633937
 H        -5.4266555217       -7.0097712615       -1.7845897577
 H        -4.3983211406       -8.2930945459       -2.3832906373
 H        -3.8243386279       -6.6433925952       -1.9315258255
 H        -5.1578339569       -8.5362487528        1.5266046359
 H        -6.1148921885       -7.3863176930        0.4163510883
 H        -5.6058489882       -8.9622326726       -0.0558608377
 H        -3.0171229263       -4.9692498184        3.6181645297
 H        -2.3367016362       -4.3260406964        2.2234565468
 H        -5.3771105997       -1.8824905569        0.2881908634
 H        -4.5573966184       -0.2852052052        0.3605132048
 H        -5.7479886283       -0.7285484251        2.6237959443
 H        -6.2662054546       -2.1149547336        3.7935644152
 H        -6.4669323646       -2.2159250523        2.1028920317
 H        -2.8215718439       -2.7854988165        4.1945043732
 H        -3.4402365945       -1.1790116663        4.2552163360
 H        -4.4331106026       -2.5355426739        4.8783696447
 H        -4.2037059399       -1.6185933860       -1.7815395180
 H        -3.1427334797       -2.7893362555       -0.8958808235
 H         2.0537867297       -1.3155335246       -2.7401059606
 H         1.1012356510       -2.5461588022       -3.3340037855
 H         0.6342503554       -2.5618498124       -0.6412530890
 H        -0.8446293261       -3.3044164732       -0.3803868531
 H        -0.5913598996       -1.6958520989        0.1926430769
 H        -1.9946597100       -3.6434253070       -2.3419364898
 H        -2.3540740954       -2.5882190285       -3.6348671220
 H        -0.6691881751       -3.2294919532       -3.4528760742
 H         1.1835606594        0.2896511014       -4.7397861065
 H         2.2377023910       -0.9469783700       -5.2554215086
 H        -2.7114158739       -0.2095107601       -7.7512759821
 H        -2.1557248223       -0.2798950402       -6.0824607828
 H         2.0488273242        0.2645580285       -7.5528154553
 H         1.5741919887       -0.4150654860       -9.0783732603
 H         2.2719858842       -1.3918882327       -7.8791767483
 H        -0.0636032813       -1.5995549064       -9.3325501227
 H         0.0369623630       -2.8250394675       -8.2019525385
 H        -1.4778838422       -1.9580289440       -8.1949773463
 H        -3.8743446964        1.5887695949       -6.9431754074
 H        -2.5206410521        2.3116852760       -7.7739569873
 H        -1.1840263466        5.7977319748       -4.0069295570
 H        -2.8566583384        6.4217335145       -3.4783286282
 H        -0.8523001076        4.6638937940       -5.9880519599
 H        -2.2227950024        5.8672354059       -5.9081467111
 H        -1.9142211968        4.6716537488       -7.1370559596
 H        -4.4265902737        5.1955076695       -5.7456582569
 H        -4.5040914006        3.6903284005       -6.7252987725
 H        -4.9745033426        3.8176566682       -4.9448168584
 H        -1.5969318338        6.7160482159       -1.4547492459
 H        -2.2539466507        5.0658450719       -1.2930044269
 H        -0.4962940681        4.8109642469        2.5186711700
 H        -0.1727296122        3.0307400039        2.6377361673
 H         2.4056128833        4.3132108391       -0.8428221640
 H         2.5883193080        5.6315182837        0.3599796446
 H         2.1553638917        6.1140945387       -1.2605960585
 H         0.7208824597        6.6218746004        1.6487989680
 H         0.5936336047        7.4694476392        0.0706934355
 H        -0.9328892775        6.7090128621        0.9630477437
 H         1.3624622585        4.5312066844        3.8980173189
 H         2.0268138835        5.1434646090        2.3253684647
 H         2.4125180329        1.3201229959        5.5086628494
 H         3.5658108153        0.5347422940        4.5730421628
 H         4.0743221722        1.0552893409        2.4888160238
 H         5.6727203120        1.9104003731        2.9191537469
 H         4.6818071871        2.0896660233        1.4126625102
 H         5.5751609097        4.4131289362        3.3651769714
 H         4.3662585399        4.6994325714        2.0474005838
 H         4.0138914071        5.0239057431        3.6774712943
 H         3.9723987327        1.7362358094        7.3547697875
 H         3.5218813799       -0.0751195438        7.1048220697
 H         7.0891319660        1.8385278621       10.3037019128
 H         8.2962203750        0.8117302264        9.5124845037
 H         7.8048609896        2.4266237449        8.8853969134
 H         6.5789508921       -1.9694792455        8.6232461456
 H         5.4281266743       -2.1600744995        7.2692430581
 H         4.9003877857       -1.3570050741        8.7591374338
 H         8.5438099181       -0.6086879956        8.1003088689
 H         7.8928055403       -1.2837439064        6.6328172759
 H         8.3108351923        0.4872086732        6.7225394314
 Na       -1.4597873550        2.2489919874       -2.0286901148
