155

 C         6.4233079530       -5.5120141895       -2.7231620493
 C         5.6776165237       -6.8874780816       -2.8236387302
 C         4.1726870263       -6.8182681076       -3.2618358398
 C         3.9209717786       -5.5629282065       -4.1306867368
 C         4.3769864334       -5.4612559585       -5.6474439309
 C         3.9392704098       -8.0294841813       -4.2381082711
 C         3.2604873748       -6.8468581447       -1.9865958753
 O         6.2217825263       -7.9506758738       -2.4914300067
 O         3.3390435543       -4.6060953921       -3.6013898447
 C         3.6989672920       -4.1691238409       -6.1791681244
 C         4.5166770309       -2.9184346095       -5.9316619714
 C         3.7986977882       -1.4719812716       -5.9363098154
 C         3.0773701453       -1.1063862598       -4.5358249244
 C         3.8155462560       -0.7685109166       -3.1744332957
 O         5.6928996521       -2.9841834644       -5.7361771194
 O         1.8540085186       -1.0423751910       -4.4956256284
 C         4.8644700860       -0.4867341237       -6.2917410557
 C         2.6640110780       -1.5019169951       -6.9914914793
 C         3.0690023363       -0.9442454997       -1.9431295579
 C         3.6660136850       -0.1605828515       -0.7778021717
 C         2.7733373525        1.0409507786       -0.1793704926
 C         1.5239736861        0.3933082218        0.6372169689
 C         1.9139202533       -0.4500346197        1.7629624971
 C         3.6453624438        1.9513955927        0.7388807193
 C         2.1764758471        1.8194066908       -1.3976346246
 O         4.7378081019       -0.4791448160       -0.3364637490
 O         0.4197704705        0.7563438677        0.2690227404
 C         0.8264493891       -1.3390387947        2.5220180888
 C         1.2356235393       -2.0512760080        3.8201019738
 C         0.2671356419       -3.2526301471        4.2134550013
 C        -1.0865045274       -2.6398700326        4.5745765545
 C        -1.3850913717       -1.4354054831        5.6287927049
 O         2.0544524061       -1.6546821550        4.5773512346
 O        -2.0990894636       -2.8720883933        3.9203642747
 C        -0.0013353317       -4.3341684141        3.0127478312
 C         0.8396600244       -4.0252091867        5.4242972750
 C        -2.6687795118       -0.7268786741        5.2605945704
 C        -2.7659436688       -0.4876956891        3.7677874847
 C        -4.0889521345       -0.7948868035        2.8921663758
 C        -4.6435621369        0.6231433293        2.5488518665
 C        -6.1108810048        0.7853875423        2.9577613929
 C        -3.6711436172       -1.5202870210        1.5916490497
 C        -4.9924118361       -1.7387446711        3.5698542009
 O        -1.8017807341       -0.0252097252        3.1701847657
 O        -4.0220740926        1.4511396336        1.9878196632
 C        -6.5503411970        2.1021354557        2.4146218768
 C        -6.5606710437        3.1969386733        3.4838125572
 C        -6.5791953941        4.7008753482        3.0059848276
 C        -5.0089060814        5.1024195137        2.7066100317
 C        -3.9029201389        5.2069065569        3.6843071281
 O        -6.6462536910        2.9277191313        4.6467145932
 O        -4.7063300727        5.2009213168        1.5482632285
 C        -7.4102174857        4.9181585152        1.7244604825
 C        -7.1657793720        5.6025957980        4.1334087138
 C        -2.5974952677        5.8249084803        3.0539559341
 C        -1.8191403399        4.8342643630        2.1700259991
 C        -0.9254841673        5.2468744428        0.9403875098
 C        -1.3714084165        4.2695990716       -0.1905799538
 C        -2.6094168950        4.5355411993       -1.0905039528
 C        -1.1137647333        6.8069453029        0.6268119653
 C         0.4353082212        5.0256797292        1.4355832109
 O        -1.8043964361        3.6405486224        2.4666834554
 O        -0.6630051216        3.3554533838       -0.5044830981
 C        -2.7920977734        3.5038920428       -2.2472750313
 C        -3.0045348558        2.0798480075       -1.8193682434
 C        -3.2733701922        1.0099966776       -2.9684554590
 C        -2.0018015784        1.0500649014       -3.9633804251
 C        -0.8929048343        0.1310121169       -3.6188163829
 O        -2.7625849650        1.6469832335       -0.6852468771
 O        -1.9530685126        1.8594074203       -4.9320409337
 C        -3.4540785156       -0.3199803110       -2.2049561237
 C        -4.4388407490        1.2915479044       -3.9646041461
 H         6.5372946305       -4.9589725005       -3.7120176404
 H         5.8868133119       -4.8576445235       -2.1322806851
 H         7.4553269826       -5.5221748232       -2.3262672807
 H         5.4718657147       -5.3054690670       -5.7938644075
 H         4.0715311620       -6.3058421627       -6.2768934898
 H         4.1185833103       -8.9333019530       -3.6689503012
 H         4.5335972981       -8.1494171179       -5.1141183135
 H         2.9815771940       -7.9766900533       -4.6486119365
 H         2.9456083902       -7.9057574305       -1.7769358963
 H         3.5538272648       -6.1767197643       -1.1843579586
 H         2.2567267505       -6.4163127566       -2.0955628687
 H         3.6369003334       -4.2504620020       -7.2687576821
 H         2.6828820083       -4.0472161174       -5.7684284554
 H         4.8135702454       -1.3094121469       -3.1362782308
 H         4.0810352824        0.3293232191       -3.1930621084
 H         5.6309595410       -0.3354255711       -5.4307530201
 H         4.4199927043        0.3880361704       -6.6074319308
 H         5.5454063887       -0.9543234418       -7.0038540066
 H         2.1633808155       -0.5449249281       -7.2058494910
 H         2.9936701847       -1.9156608733       -7.9795481972
 H         1.8928837138       -2.2388660693       -6.6305129322
 H         3.0079131015       -2.0009513629       -1.6754201206
 H         2.1710184213       -0.4354901763       -2.1830690692
 H         2.7445032177       -1.1077760642        1.4124287714
 H         2.4610954653        0.2213561047        2.4121700914
 H         4.4132729994        2.5007793752        0.2938327874
 H         4.1223531977        1.4640935092        1.4971795973
 H         3.0692680971        2.7370751099        1.3320275742
 H         2.1564275134        2.8687845662       -1.1120275777
 H         2.8885008070        1.6670700295       -2.1611902591
 H         1.2015058919        1.3832093658       -1.5487833900
 H        -0.0934328018       -0.8088354492        2.7846339722
 H         0.5577092901       -2.1899261128        1.8558920590
 H        -1.6040418039       -1.8363411999        6.6106003828
 H        -0.5077971950       -0.7118088060        5.6284051328
 H         0.9650308325       -4.6526853266        2.7136122115
 H        -0.5389771704       -3.9494966746        2.1990866752
 H        -0.4638140226       -5.2282454897        3.5016744031
 H         0.5321973893       -3.5113852131        6.3415798981
 H         0.3184845280       -4.9692540938        5.5148963643
 H         1.8594829427       -4.2326452387        5.5344216064
 H        -2.7238017071        0.2345968847        5.7248183734
 H        -3.5151460864       -1.3644160455        5.4831363614
 H        -6.6069758095       -0.0969866551        2.4892568780
 H        -6.1791399218        0.7434669447        4.0700030691
 H        -2.8023129605       -1.2916721446        0.9771487721
 H        -4.5269661686       -1.3258354345        0.9296878274
 H        -3.6734138137       -2.5907698421        1.6767580651
 H        -5.7553491328       -2.2361746284        2.9418842902
 H        -4.3170869520       -2.6177567179        3.9131545115
 H        -5.3571665710       -1.3692201669        4.5464880393
 H        -5.8319959338        2.5186480829        1.6514070768
 H        -7.5308597323        2.1806067992        1.9717339711
 H        -4.2762551457        5.6176384483        4.5373744404
 H        -3.7129173430        4.1867971028        3.9402293620
 H        -7.9073301882        5.8774864068        1.6325066038
 H        -8.2324740124        4.2961891246        1.8795173297
 H        -6.6612144225        4.7987810984        0.7890533032
 H        -8.0714363314        6.0178323214        3.7476974606
 H        -7.2616303558        5.0737698986        5.1278671793
 H        -6.6371512563        6.5412115653        4.3898960369
 H        -1.7720835284        5.9467651186        3.8016483991
 H        -2.8803394450        6.7656755507        2.5142053742
 H        -3.5270117207        4.6936173979       -0.5804380978
 H        -2.6068292865        5.5720824741       -1.5093679524
 H        -0.5851464725        7.1748208344       -0.2878204730
 H        -0.8002740282        7.2542586563        1.5265248542
 H        -2.1850713715        7.1438406003        0.5910280204
 H         0.6444315734        4.9042213209        2.5737491803
 H         0.8273576302        4.0967168698        1.0765194892
 H         1.1989104994        5.8988226180        1.2419645150
 H        -3.5886994563        3.9344435536       -2.8387953579
 H        -2.0015526771        3.5611101183       -2.8758574719
 H        -1.1825316158       -0.9076617416       -3.4513982634
 H        -0.1930894014        0.2075483529       -4.3854490770
 H        -0.5333631842        0.3115634379       -2.5870788536
 H        -2.5802768344       -0.5618703854       -1.5877484206
 H        -3.6398896253       -1.1651268180       -2.9002027168
 H        -4.3616479691       -0.3219923254       -1.6223430418
 H        -5.3632935608        0.9195216886       -3.6004901973
 H        -4.4888036391        2.3165404742       -4.0513742662
 H        -4.2671546669        0.9332230949       -4.9538727382
 Na       -1.4509505182        1.6316093163        1.4377594824
