155

 C         6.3951259903       -5.3437796462       -2.4719444808
 C         5.8485572086       -6.7237623619       -2.7283827528
 C         4.4268845325       -6.6810143753       -3.7271757515
 C         4.0313584808       -5.3811133782       -4.2545635957
 C         4.5659504019       -5.0272580836       -5.6598463979
 C         4.7415485549       -7.7209466163       -4.8383648807
 C         3.2227072184       -7.2729209479       -2.9159094634
 O         6.3141099675       -7.7853160380       -2.5008697719
 O         3.1911926799       -4.6681335247       -3.7706949505
 C         3.9304558736       -3.6550541498       -6.1051963888
 C         4.5288170447       -2.5257582651       -5.3115700739
 C         3.9036236307       -1.0164032101       -5.2944482013
 C         3.1058078303       -1.0151000754       -3.9596521706
 C         3.9447521459       -0.7413649336       -2.6379137531
 O         5.5283956118       -2.6796186527       -4.6061958465
 O         1.9233394309       -1.1434043926       -3.8020204793
 C         5.0761713222       -0.0077413643       -5.1458838403
 C         3.0159580151       -0.6937341174       -6.5014907407
 C         3.2405327124       -1.2853968480       -1.3757591180
 C         3.5959891540       -0.4137919056       -0.2354537176
 C         2.7326867080        0.8672731946       -0.0288638196
 C         1.6553778973        0.4390395334        1.1527420021
 C         2.2135571077       -0.1721114780        2.4698308208
 C         3.7525836598        1.9306199434        0.5225582069
 C         1.8402910695        1.3301708363       -1.2087634959
 O         4.5441276024       -0.6391485949        0.4844541986
 O         0.4780230385        0.4137729946        0.8669626522
 C         1.8436221678       -1.7009695299        2.3871688935
 C         1.5607300028       -2.1717554038        3.8675968247
 C         0.6608229421       -3.4427606165        4.2756586825
 C        -0.8766212964       -2.7678063344        4.3470051704
 C        -1.0622561572       -1.5315375207        5.2300047910
 O         2.0305769106       -1.4426209152        4.7484160521
 O        -1.7000687492       -3.3286526819        3.7436136372
 C         0.6016355644       -4.5657239152        3.1254301053
 C         1.1278511358       -3.8838689649        5.6229771274
 C        -2.5127637007       -0.9791066251        5.1310369873
 C        -2.7206069574       -0.2933563798        3.7271006855
 C        -4.0201954438       -0.7230348278        2.8643458563
 C        -4.7565401671        0.5892524690        2.3841556505
 C        -6.2953770063        0.8163621112        2.3776717682
 C        -3.4906746730       -1.3634796103        1.5582882644
 C        -4.9678447546       -1.5960081927        3.6474349230
 O        -1.8146316310        0.4889773580        3.3244362276
 O        -4.0702140126        1.4236803888        1.8149025591
 C        -6.8843227088        2.1079823940        1.9376632996
 C        -6.7945340462        3.1983120441        3.0019861228
 C        -6.7095159326        4.6837021424        2.5154304161
 C        -5.1417002999        4.9026260929        2.4327607247
 C        -4.2120236340        4.8868037768        3.6458166918
 O        -6.9781508137        2.9013179838        4.1739380374
 O        -4.6092254942        5.0621478033        1.3437384606
 C        -7.2152028191        4.8244067793        1.0774172144
 C        -7.3855405434        5.5890420538        3.5271395069
 C        -2.8234323661        5.4963388517        3.1801035415
 C        -2.0318633614        4.6369522341        2.2034525103
 C        -1.2019727944        5.1508086736        1.0846913226
 C        -1.2627354248        4.0775115537       -0.1333162587
 C        -2.4790554377        4.2619161524       -1.0734822765
 C        -1.6684372514        6.5977313734        0.6652965411
 C         0.1993968147        5.3781225726        1.6029859712
 O        -1.8709570007        3.4690430210        2.4887063719
 O        -0.5778365167        3.0908207799       -0.1411615756
 C        -2.4920150721        3.3603019654       -2.3427606058
 C        -3.0364950798        1.9117140213       -2.1617150620
 C        -3.7807242601        1.3604963639       -3.4233182826
 C        -2.4191517847        0.9301931300       -4.3502699073
 C        -1.6443817484       -0.2441628934       -3.7520627378
 O        -2.8206400161        1.2161715039       -1.1979918266
 O        -2.0538509729        1.6009089764       -5.2309148722
 C        -4.5620692324        0.0961140478       -2.9700621558
 C        -4.6706841479        2.3078965734       -4.3078822813
 H         6.3393099341       -4.6824522627       -3.3101078336
 H         5.9710693007       -4.8306112072       -1.5510333374
 H         7.4167473447       -5.4278634197       -2.2603990839
 H         5.6487580346       -5.0432196809       -5.8674107591
 H         4.1267264541       -5.7649723484       -6.3149474733
 H         4.9040068358       -8.7475436653       -4.4844728121
 H         5.6053866687       -7.3261212237       -5.4272134559
 H         3.8181901490       -7.8695110423       -5.3498571624
 H         3.2188637317       -8.3075453837       -2.7983931070
 H         3.2508624569       -6.9190968288       -1.8253368315
 H         2.3503301286       -6.9269910926       -3.4621200540
 H         3.9066092781       -3.4470655045       -7.1518856154
 H         2.8492508417       -3.5566200079       -5.8642902098
 H         4.9617777150       -1.2431181346       -2.6338321483
 H         4.0305751308        0.3088296211       -2.5427030506
 H         5.6961759778       -0.2307448807       -4.4075154965
 H         4.8631652741        1.0719364805       -5.0305398465
 H         5.5439615805       -0.0604476809       -6.0692403664
 H         2.3780127179        0.1665841892       -6.3746484988
 H         3.5999384158       -0.5555605881       -7.3564434652
 H         2.3485276129       -1.4893059020       -6.7362527946
 H         3.5108123790       -2.3145632714       -1.1866890668
 H         2.1547687688       -1.3988917607       -1.6060031319
 H         3.3032132738        0.0758135913        2.6200962248
 H         1.6431482859        0.2582242220        3.2724960630
 H         4.6885561686        2.1763116798       -0.0757217741
 H         4.1485355468        1.6566839355        1.5287790810
 H         3.3544184404        2.8967985923        0.7770742826
 H         1.8394890318        0.5242573327       -1.9219225598
 H         0.8656494940        1.2294900655       -0.7354253296
 H         1.9847679345        2.3797753410       -1.5166805453
 H         1.0797022070       -2.0185111769        1.6051792556
 H         2.7442763624       -2.2547281126        2.0246458111
 H        -0.7673368695       -1.7403127244        6.1992452776
 H        -0.3378614222       -0.7497040068        4.7517588885
 H         1.6379276370       -5.0408385797        3.2668392614
 H         0.4293249175       -4.0640670944        2.1616381532
 H        -0.2273348387       -5.2080899266        3.2967992424
 H         0.8817869025       -3.0702967838        6.3280858353
 H         0.5733637030       -4.7698206630        6.0602777212
 H         2.1689507111       -4.0681838674        5.6988606479
 H        -2.8110070009       -0.3005500745        5.9842603802
 H        -3.2527066338       -1.8083317669        5.2501741614
 H        -6.6966079712        0.0179662627        1.7807846693
 H        -6.6208004189        0.7245348073        3.4173823144
 H        -2.6588518523       -0.8870740667        1.0464817588
 H        -4.3624309593       -1.5198287228        0.9247380837
 H        -3.0836183179       -2.3822987877        1.6533017042
 H        -5.9494140526       -1.7313801026        3.2073337722
 H        -4.5797065451       -2.5530744349        3.8690065255
 H        -5.2997833494       -1.1226249999        4.5390764615
 H        -6.4404523403        2.5066289741        1.0155785484
 H        -7.9913946565        1.9205828770        1.8605651596
 H        -4.7847772674        5.3718552391        4.4585776213
 H        -3.9794128217        3.8016243658        3.9199525208
 H        -7.3348330273        5.9136451162        0.8986025503
 H        -8.1747812627        4.2646315289        0.8859660544
 H        -6.5766104923        4.4269672661        0.4256727733
 H        -8.2814425657        5.1333363266        3.9308479036
 H        -6.6867943387        5.7077519742        4.3962348797
 H        -7.5013905722        6.5146292295        2.9226490205
 H        -2.1028527816        5.4981219938        3.9620694064
 H        -3.0186347644        6.4954706579        2.8595572295
 H        -3.4339662373        4.2058470529       -0.5363817415
 H        -2.3277309292        5.3352073650       -1.4230009530
 H        -1.0784551884        6.9967674318       -0.1885293608
 H        -1.4216244010        7.2464916152        1.4564232060
 H        -2.6964377531        6.5384300005        0.4255994587
 H         0.2771093352        5.6389681423        2.6249146210
 H         0.7322295772        4.3976473005        1.4407902481
 H         0.7055258950        6.0194574274        1.0047433524
 H        -3.0581057574        3.8971301087       -3.0242048280
 H        -1.4223135746        3.2802382159       -2.7172577300
 H        -2.3247469170       -1.0585488220       -3.5652026355
 H        -0.7696185062       -0.6625681355       -4.3014441263
 H        -1.2081358808        0.0621093637       -2.7843672103
 H        -3.8672660666       -0.5380517494       -2.3644960420
 H        -4.9144445347       -0.4591181311       -3.8296440570
 H        -5.3158210504        0.3527440250       -2.3070077282
 H        -5.6529529228        2.5582355895       -3.7610112299
 H        -4.1472199379        3.2672425651       -4.4417962458
 H        -4.9134067651        1.8423999582       -5.3033393402
 Na       -1.7946761888        1.5025750629        1.0663987144
