155

 C        -3.1200384777      -10.0825259524       -0.8902408758
 C        -3.0334733927       -8.6938593354       -0.2408057562
 C        -4.2668653430       -7.6652424446       -0.2573537154
 C        -3.8494802664       -6.2915932310        0.4353508156
 C        -3.2801892888       -6.2465067238        1.8410701822
 C        -4.5727151578       -7.5598083355       -1.7349152730
 C        -5.5622662222       -8.2519610661        0.5077872858
 O        -2.0943686590       -8.2959089708        0.4854079828
 O        -3.6697264294       -5.2373104036       -0.1862998714
 C        -3.4910348944       -4.7819679416        2.4285250207
 C        -4.5973814265       -3.7929935466        2.1640652466
 C        -4.2994109300       -2.2945371673        2.7573310971
 C        -3.4700204095       -1.5595567803        1.6969855795
 C        -4.1255016248       -1.0705655023        0.3262568641
 O        -5.6590887969       -4.0906779353        1.6363288904
 O        -2.2897283033       -1.4214394603        1.7859168418
 C        -5.6635902453       -1.6070432565        3.1410561116
 C        -3.3849818498       -2.3524709989        4.0301310457
 C        -3.5182047148       -1.8942981356       -0.7706230735
 C        -2.2817849677       -1.0443053894       -1.3199124363
 C        -1.0439690974       -1.8007807085       -1.9381116407
 C        -0.0607692460       -0.8122584706       -2.7147319167
 C         1.0552105496       -1.4494882721       -3.6212942834
 C        -0.2293962159       -2.2575527708       -0.7078053617
 C        -1.5477730154       -3.0035268760       -2.8428876123
 O        -2.3534388174        0.1586491161       -1.1074370242
 O         0.0082738908        0.3669451615       -2.4578924732
 C         1.3179949040       -0.8818284466       -4.9934173219
 C         0.2651860727       -1.4070961879       -5.9966307465
 C         0.2871701666       -0.8580194200       -7.4760793246
 C        -0.6037457419        0.5717844799       -7.4785162996
 C        -2.0941232769        0.4640168444       -6.9934487461
 O        -0.5845295095       -2.1801868863       -5.5481668742
 O        -0.1814943119        1.6123731131       -7.8828359765
 C         1.7513585133       -0.5779823234       -7.8877539751
 C        -0.5419756505       -2.0418454362       -8.2678616927
 C        -2.9281520593        1.7766115083       -6.6836980505
 C        -2.5194052224        2.4201843324       -5.4058149305
 C        -2.9391553663        3.9955189907       -5.2466717738
 C        -2.8305378693        4.3179220839       -3.6930800082
 C        -2.0723500994        5.6097805829       -3.2274444213
 C        -1.9817069998        4.7780486994       -6.2038851641
 C        -4.4336965141        4.4019681288       -5.6436499273
 O        -1.8669892095        1.8145334838       -4.5812231746
 O        -3.1988492988        3.4720122360       -2.9160189832
 C        -1.7517738080        5.5978018728       -1.6799571958
 C        -0.3086184384        4.9657554021       -1.5819336676
 C         0.5520421227        5.1268553512       -0.1426586610
 C        -0.0348007337        3.9540403832        0.7123570795
 C         0.1671369986        3.9034469104        2.2607972636
 O         0.1978979555        4.4774520714       -2.5906913854
 O        -0.7936213021        3.2133669276        0.0765503071
 C         2.0695796148        4.8188403048       -0.3169295120
 C         0.2530899795        6.5323524055        0.3409733910
 C         1.6077038755        4.0628701801        2.8442468321
 C         2.4771267218        2.8224337014        2.8501398835
 C         3.9020263937        3.0312935645        3.3069712072
 C         3.9232800782        2.7565940881        4.8889528075
 C         3.3437882993        1.3815932961        5.3845741032
 C         4.8706887494        1.9241542733        2.6840583462
 C         4.6142100818        4.3928072069        3.1782043647
 O         2.0656426419        1.6743251154        2.7238002629
 O         4.0814407747        3.6267290788        5.6962506926
 C         4.1105765170        0.7336207753        6.5773478846
 C         5.6643829226        0.7349220828        6.4079151401
 C         6.5665534719       -0.0423025679        7.5716708697
 C         6.4804641523        0.8828735877        8.8053312303
 C         7.6527527477        1.7591812299        9.1295196522
 O         6.2225439995        0.9835131432        5.3781293232
 O         5.4558429910        0.9796893038        9.4401074734
 C         5.8148460866       -1.3026594287        7.9339583554
 C         7.9742565644       -0.3185506710        6.9787178081
 H        -2.5046601585      -10.1840131453       -1.7835203747
 H        -2.6882192138      -10.9655601468       -0.3543402410
 H        -4.1609671430      -10.2957362264       -1.1703088481
 H        -3.6609130732       -6.9582804522        2.5265782884
 H        -2.2358551685       -6.5517678877        1.6945666267
 H        -5.3312448856       -6.8183724790       -1.9956214446
 H        -5.0199017095       -8.5099443502       -1.9553997678
 H        -3.7387128840       -7.2850233206       -2.3824621082
 H        -5.2056511967       -8.4726089774        1.5523563475
 H        -6.2648930070       -7.4596700951        0.4380514161
 H        -6.0626628966       -9.1725321008        0.1433051864
 H        -3.4395150080       -4.8105876394        3.4291591511
 H        -2.5601988897       -4.3138215438        2.2369139813
 H        -5.2087170081       -1.2177410464        0.3388392499
 H        -3.9432152112       -0.0379166206        0.0489829234
 H        -5.4756644770       -0.6163210217        3.4146485229
 H        -6.1293725080       -2.2217989128        3.8399416346
 H        -6.3995100299       -1.7210763184        2.2566752854
 H        -2.3457659627       -2.2699643532        3.8665338180
 H        -3.6623459037       -1.4977507089        4.6666636188
 H        -3.6391441978       -3.2319202035        4.6394820704
 H        -4.3648906011       -1.9991433218       -1.5171483716
 H        -3.1820223347       -2.8104631467       -0.4020196416
 H         1.9097901904       -1.2686807408       -2.9904780130
 H         1.0260436828       -2.5158461931       -3.6936510239
 H         0.8317591126       -2.4133874167       -0.9993044594
 H        -0.5160697739       -3.3241208253       -0.4571091947
 H        -0.2471894073       -1.6532185014        0.2885827948
 H        -2.4003707894       -3.5280413113       -2.2808038395
 H        -2.0095464544       -2.7264998734       -3.7566237180
 H        -0.8166708665       -3.6899903041       -3.1049203539
 H         1.2167384919        0.1850554154       -5.1449793708
 H         2.3604633634       -1.0641309448       -5.3610404517
 H        -2.7157569952       -0.0329390437       -7.7375527054
 H        -2.0908580136       -0.1684936101       -6.0807491313
 H         2.3272553272       -0.1759943383       -7.0474747212
 H         1.7207536158        0.0732254260       -8.7747345906
 H         2.2784948026       -1.5161188379       -8.1982622439
 H        -0.4008535761       -1.9416851505       -9.3462026044
 H        -0.1372051026       -3.0896656663       -8.0535953460
 H        -1.5734967857       -1.9175615898       -7.8940947069
 H        -4.0441414667        1.5509675287       -6.5456773417
 H        -2.9312197827        2.5343102672       -7.4715723810
 H        -1.1425694722        5.8003623604       -3.7189599001
 H        -2.7384957899        6.4837236672       -3.3961034037
 H        -0.8822811274        4.5371273527       -6.1062409394
 H        -2.3210973211        5.7784642655       -6.0486883095
 H        -2.0196247843        4.3702636513       -7.2518195797
 H        -4.4793463418        5.5041550122       -5.5475819202
 H        -4.6139822182        4.0582952105       -6.6222201197
 H        -5.2506323327        4.0159315640       -4.9834381501
 H        -1.8633884443        6.6036072859       -1.2941798449
 H        -2.3282524672        4.8500447522       -1.1761799472
 H        -0.5918141391        4.6744288123        2.5085900633
 H        -0.1184164893        2.8394119042        2.5434336714
 H         2.1728112156        3.7636291951       -0.3809021859
 H         2.7800419079        5.2533865370        0.4562846149
 H         2.4299751902        5.2852290179       -1.1968933073
 H         0.6245897155        6.7732117985        1.3567613891
 H         0.6362325617        7.1227713650       -0.4324820276
 H        -0.8366387912        6.5399356372        0.5684146597
 H         1.5409205276        4.3480397541        3.9394714941
 H         2.1214918495        4.8465737201        2.3364378363
 H         2.2267835907        1.5446487898        5.5884259223
 H         3.3841795178        0.6273786585        4.5289347778
 H         4.3136912058        0.9762385242        2.8503920856
 H         5.8936508898        2.0308181571        2.9596685766
 H         4.8920882156        1.9679104398        1.5735436273
 H         5.6539063403        4.2407683940        2.7982038651
 H         4.0249403925        5.0396666646        2.5473128014
 H         4.7174533751        4.9636915200        4.1014678685
 H         3.9077812624        1.1409996887        7.5635503191
 H         3.8764339767       -0.3360573178        6.5085257445
 H         7.2730078835        2.6286317852        9.7044593488
 H         8.3786351857        1.1371608247        9.6406389120
 H         8.0618393948        2.1420212508        8.1901955474
 H         6.2871803037       -1.9821630846        8.6752153485
 H         5.6292859605       -1.8770839663        7.0095454466
 H         4.7948102831       -1.0665219073        8.3048014946
 H         8.6424792155       -0.5569318230        7.7860750807
 H         7.8525833489       -1.2135457774        6.3604653757
 H         8.4299700166        0.5507052137        6.4707334390
 Na       -1.1188237234        2.3078621969       -2.2572079557
