155

 C         5.6502485341       -5.7961347056       -1.8844042898
 C         6.1144414485       -6.0170120059       -3.3363236871
 C         4.8661185967       -6.5509423318       -4.3577299467
 C         4.0618245341       -5.1065136871       -4.6598250623
 C         4.5484378523       -4.2965221981       -5.8445325821
 C         5.5792863665       -7.1716822517       -5.5389925603
 C         4.0088767216       -7.5710528374       -3.5939052207
 O         7.1341792130       -5.7601796888       -3.8183973107
 O         3.2583220995       -4.6609240945       -3.8657445463
 C         4.3989215087       -2.7867308871       -5.7689286978
 C         4.9716235446       -2.1563926227       -4.4720227345
 C         4.5334156402       -0.7164866362       -4.1476854317
 C         3.1395283598       -0.8459046439       -3.4344942577
 C         3.0472089294       -1.9761620900       -2.2849486109
 O         5.6202603719       -2.8375352219       -3.6906251635
 O         2.1972274248       -0.1170726728       -3.6550255859
 C         5.6095905923       -0.1250481480       -3.1653308909
 C         4.5282267642        0.1768971043       -5.4469185229
 C         2.2659571313       -1.4772710965       -1.0504192714
 C         3.1852216831       -0.7788452992       -0.0588487610
 C         2.7314267146        0.5846292017        0.6779366772
 C         1.2317115563        0.5141522635        1.1483008407
 C         0.6280957338       -0.2096266949        2.4732737349
 C         3.8596625787        0.8960732227        1.9193377531
 C         2.8197393594        1.7343850285       -0.3148475984
 O         4.2907389868       -1.2353122465        0.2178040897
 O         0.4400856104        0.8406936135        0.2435946324
 C         1.4349791894       -1.4286252352        2.9248021140
 C         1.4409259400       -1.4162433499        4.5099483183
 C         0.7596866580       -2.6742118721        5.1623037989
 C        -0.6949720526       -2.8061942367        4.5392240572
 C        -1.8985293293       -2.1525261132        5.1208807838
 O         1.8131137369       -0.4865237977        5.1481344189
 O        -0.7814237580       -3.6228993514        3.5760507962
 C         1.6250426249       -3.9000359587        4.6984905691
 C         0.8143751880       -2.4691634952        6.6424922795
 C        -3.1400060975       -2.1227240471        4.2792768395
 C        -3.0825133388       -1.0330976077        3.1616734372
 C        -4.0944658539       -1.2382239576        1.9410917120
 C        -4.7970439078        0.1736459405        1.6566153593
 C        -6.3025148784        0.2255674433        2.0029742671
 C        -3.2214815273       -1.5719454367        0.7228688653
 C        -5.1310459709       -2.4672372404        2.2580819556
 O        -2.2680996229       -0.1657769351        3.2129325114
 O        -4.1980847480        1.1756784587        1.2781095446
 C        -7.1321743814        1.4364913297        1.6230087812
 C        -6.6961696650        2.5219030648        2.5573144880
 C        -7.0774627427        4.1134445230        2.0969041360
 C        -5.6241915452        4.6683113977        1.9234864478
 C        -4.7454893666        4.8176646940        3.0599792200
 O        -6.2294267993        2.3250551378        3.6788247327
 O        -5.2300016785        4.7966395387        0.7482506401
 C        -7.8068380623        4.1165495723        0.7807830574
 C        -7.9223637574        4.8001192771        3.2164262487
 C        -3.4867916500        5.5486380734        2.6065475210
 C        -2.4237163965        4.7014104774        1.8524218882
 C        -1.3366746793        5.3373881453        0.8457846495
 C        -0.7957090751        4.1886225807       -0.0512637181
 C        -1.4407351120        4.0460823300       -1.4819827473
 C        -1.9009737773        6.4729959073        0.0420758000
 C        -0.1896437577        5.9221658923        1.7931018306
 O        -2.2445274534        3.6029286603        2.2530419985
 O         0.0256054337        3.3786739035        0.3455411576
 C        -1.2893690862        2.6418568734       -2.1057412937
 C        -2.5787281079        1.8259752331       -2.0002280429
 C        -3.5868555237        1.5785068036       -3.1328126196
 C        -2.8231281089        0.9951155735       -4.3928611538
 C        -2.9460696043       -0.4085436425       -4.9856723954
 O        -2.7344992981        1.2261349176       -0.9647323844
 O        -1.9502129061        1.6478405708       -4.8467764586
 C        -4.6497179814        0.5655610505       -2.7359096500
 C        -4.2753245767        2.9213655481       -3.4985368282
 H         5.5648812600       -4.6937626939       -1.6692003413
 H         4.7921025122       -6.3458252791       -1.6561058888
 H         6.4575208518       -6.2111263899       -1.2993733530
 H         5.6697614799       -4.4080125881       -5.9630072841
 H         4.1325777957       -4.7238115978       -6.7508028292
 H         6.0070552808       -8.1229918383       -5.1975499278
 H         6.4552260749       -6.5998347538       -5.7156544717
 H         4.9926294900       -7.4794052601       -6.3683927040
 H         3.5493367510       -7.1356534864       -2.6426211732
 H         3.3265000011       -7.9939386055       -4.2531449405
 H         4.7884888777       -8.3352986858       -3.3376033779
 H         4.9898614864       -2.4290386904       -6.5815520090
 H         3.3385854513       -2.4844464783       -5.7971179732
 H         2.5256605600       -2.8567922263       -2.7991623204
 H         4.0463131832       -2.2796723716       -2.0005522798
 H         6.2034932081       -0.8717501090       -2.7183167999
 H         5.1592919885        0.3962257720       -2.2686170412
 H         6.1473276377        0.5801533799       -3.8047374822
 H         4.2500144673        1.1483914202       -5.0985456480
 H         5.5781298256        0.2478076330       -5.7673195176
 H         3.8882286493       -0.1320127610       -6.2576634257
 H         1.8483584613       -2.2383129689       -0.4412718442
 H         1.5507991062       -0.6919948169       -1.4309269603
 H         0.5273099892        0.6388246134        3.2407170763
 H        -0.3394930563       -0.5628838629        2.0971016313
 H         4.7382585867        1.1797684738        1.4319340138
 H         4.0592562124        0.0348476347        2.4519705827
 H         3.5458903311        1.7819409124        2.5642875272
 H         3.5622423198        1.6329207820       -1.1277245431
 H         1.8836935311        1.8716505519       -0.8667744299
 H         2.9170108755        2.6967696413        0.1424158364
 H         1.0545517488       -2.3349777769        2.4011402550
 H         2.4739136847       -1.2978390309        2.7076547465
 H        -2.1856907824       -2.8186493070        6.0049140087
 H        -1.6430260112       -1.2237849059        5.5500563333
 H         2.5279718407       -3.8417558167        5.2812951704
 H         1.8047866553       -3.7923552413        3.6014652470
 H         1.0190996010       -4.8781399051        4.8624424372
 H         0.4882783055       -1.4812003982        6.9899904754
 H         0.3361320202       -3.2353320400        7.2108947317
 H         1.9537223700       -2.4867762213        6.7660670693
 H        -3.9635824694       -1.8566940856        4.9159338308
 H        -3.1616138500       -3.1390592722        3.8668423655
 H        -6.7410448780       -0.6686532236        1.4727395786
 H        -6.5396694620        0.0121279800        3.0800855855
 H        -2.6535048928       -0.6572897697        0.4374594196
 H        -3.6423298479       -2.0203928251       -0.1880294721
 H        -2.3823638424       -2.2016907886        1.0786552633
 H        -5.8190431398       -2.3815485290        1.4569393442
 H        -4.5325315330       -3.3688242608        2.2180563263
 H        -5.7335834644       -2.3266788975        3.1337460635
 H        -7.1721099615        1.8081559749        0.6340913764
 H        -8.2445311286        1.3106947413        1.8798301960
 H        -5.1756262463        5.4317258477        3.8596440450
 H        -4.5725838837        3.8947643696        3.4712387762
 H        -8.3267750346        5.1649980923        0.6765492384
 H        -8.6474222498        3.3725894864        0.5712102483
 H        -7.2306776461        3.9813765852       -0.0392796895
 H        -8.9058807497        4.4462595075        3.1597260632
 H        -7.5898736189        4.3920343374        4.2416625871
 H        -7.8864846462        5.9236966533        3.1437523732
 H        -3.0818710623        6.1113308676        3.5042470173
 H        -3.8330822776        6.2249121332        1.8047486689
 H        -2.4628281272        4.4115604032       -1.3483923329
 H        -1.0305813698        4.7969897352       -2.1357970693
 H        -1.2311141581        6.7557584054       -0.6880614308
 H        -2.0453308937        7.4158129056        0.5916890224
 H        -2.7986781100        6.0955381535       -0.4549629479
 H        -0.0847877026        5.1954076193        2.6271370502
 H         0.7566529373        6.3128685425        1.1987105973
 H        -0.7095901452        6.8007945987        2.1767957629
 H        -0.9269526000        2.8322502424       -3.1784209747
 H        -0.5485992692        2.0144983038       -1.6963423720
 H        -3.9469296450       -0.6209157691       -5.4545059079
 H        -2.1586733284       -0.3458594145       -5.6793733989
 H        -2.9440753992       -1.2311384526       -4.2643427839
 H        -4.2317748922       -0.3546532582       -2.4468966728
 H        -5.3531446476        0.4233445663       -3.5437593163
 H        -5.1161223992        1.0231299680       -1.8398530440
 H        -5.1676938991        3.0869685945       -2.8031499828
 H        -3.7038907229        3.8399417237       -3.3647734722
 H        -4.6936954916        2.8261997258       -4.5721190594
 Na       -1.7835356965        1.5905860333        1.0765020238
