155

 C         6.1803608319       -5.9995161936       -1.9987448685
 C         6.2426737026       -5.8095645379       -3.5285008571
 C         4.9802577135       -6.2065277079       -4.3481763578
 C         4.2540896060       -4.9021269522       -4.9008318554
 C         5.0205979731       -4.0994767927       -5.8915152695
 C         5.4841993452       -7.1212468874       -5.5707689473
 C         4.1874170216       -7.1354125173       -3.4661413816
 O         7.2999011308       -5.5592483834       -4.0652281974
 O         3.1448078442       -4.6494853308       -4.4244500720
 C         4.5242802888       -2.6247124225       -5.6736867549
 C         4.9056950778       -2.2042625353       -4.2849933427
 C         4.6066199750       -0.7709852824       -3.7734870739
 C         3.1050901280       -0.7002741251       -3.2322125874
 C         2.5620020961       -1.8699491868       -2.3040308540
 O         5.4657735558       -2.9560556787       -3.4749877863
 O         2.3329096882        0.1177961599       -3.5931863986
 C         5.5342283131       -0.5423266418       -2.5424090289
 C         4.8990838812        0.2371292872       -4.8620249805
 C         1.8284544761       -1.1698628685       -1.0887823064
 C         2.9430368406       -0.7376852520       -0.0752767127
 C         2.6662343353        0.6786326327        0.7593981504
 C         1.2449383344        0.4713423132        1.3064883538
 C         0.9092531810        0.1090926007        2.7328147855
 C         3.7598600161        0.9473494108        1.7608000691
 C         2.7223128687        1.6154326434       -0.4682163643
 O         3.9652981634       -1.3519548354        0.0831445776
 O         0.3103629047        0.5141965210        0.4568262359
 C         1.4534623770       -1.2164546755        3.2021487179
 C         1.1721334692       -1.2743999869        4.6450738575
 C         0.5562983100       -2.6190091753        5.4091753977
 C        -0.7000169130       -2.9053236406        4.7000393368
 C        -1.9078009938       -2.0682687632        5.1442976311
 O         1.3250736790       -0.2470351839        5.2538394609
 O        -0.7818702038       -3.5904713382        3.6333806113
 C         1.5754960518       -3.8049861780        5.2922277679
 C         0.4995186246       -2.2061684313        6.9481413005
 C        -3.1794229849       -2.2132248837        4.3262602952
 C        -2.9206461398       -1.3879655559        2.9988273686
 C        -3.8318739090       -1.4585944785        1.7807443183
 C        -4.5738658359       -0.1398718453        1.7446593144
 C        -6.1332198904       -0.0021165835        1.7445728277
 C        -2.9970020317       -1.5354064074        0.4742863149
 C        -4.7125085138       -2.7258470682        1.7884108198
 O        -2.1812771497       -0.4480856221        3.0315202264
 O        -3.9125090498        0.9001978684        1.7435452664
 C        -6.5565205646        1.4490530657        1.1886274948
 C        -6.7742111632        2.3519189115        2.4836708682
 C        -7.0115123056        3.9075370676        2.1284235967
 C        -5.5829823050        4.5849710225        1.6725445742
 C        -4.8292910839        5.1403670935        2.8610651787
 O        -6.9995013185        1.9297842780        3.6004713484
 O        -5.2388068401        4.7537358584        0.4876751564
 C        -8.0240817911        4.1081149377        0.9779964681
 C        -7.6117939682        4.5553637542        3.3935053126
 C        -3.4480771009        5.7310560821        2.6126977296
 C        -2.5568036258        4.6470302286        1.8574923341
 C        -1.5311998837        5.2344654196        0.7879760696
 C        -0.9604808756        4.0796567286       -0.1403934283
 C        -1.3724899680        4.0115016113       -1.6387881204
 C        -2.1673156155        6.3991526073       -0.0736496151
 C        -0.2887435457        5.8855235615        1.4899675075
 O        -2.7285969142        3.5006785829        2.1667327297
 O        -0.2185651895        3.2551533424        0.3481221776
 C        -1.0819683084        2.5846854466       -2.1045845079
 C        -2.4053108806        1.7725409894       -2.0418752509
 C        -3.3731696655        1.7130324234       -3.2417883444
 C        -2.7650190204        1.1883556415       -4.6142006775
 C        -3.1090687557       -0.2034233163       -5.1434979397
 O        -2.6321934628        1.2394420066       -0.9567281612
 O        -1.8732648266        1.8497557118       -5.1692726685
 C        -4.5673220148        0.8180854334       -2.8063231904
 C        -3.8751369033        3.1693888398       -3.4961428513
 H         6.7901378424       -5.2337230672       -1.4145909238
 H         5.1943380985       -6.1239569008       -1.6407621491
 H         6.5687970519       -6.9619352039       -1.9330802220
 H         6.1087812531       -4.2750736959       -5.6284333289
 H         4.8870396735       -4.2823706820       -6.9436874867
 H         5.8272184540       -8.1697676525       -5.2295641152
 H         6.4773465672       -6.7185821845       -5.8992775314
 H         4.8637746432       -7.1522010245       -6.4868836279
 H         3.5188058806       -6.5567862965       -2.8545719338
 H         3.5273097203       -7.5831001060       -4.1333933817
 H         4.8101839274       -7.9305755990       -3.1019683660
 H         4.9161468904       -2.0302509249       -6.4519631357
 H         3.4144958536       -2.7014943321       -5.8283450665
 H         1.8216887934       -2.4631336107       -2.8900688956
 H         3.3824555309       -2.4672382903       -1.8398945098
 H         5.1376330944       -0.9053793258       -1.7102119350
 H         5.6885685083        0.5605308278       -2.4360408658
 H         6.4536846275       -0.9845622685       -2.7260158086
 H         4.6268809263        1.1792432073       -4.3845779582
 H         5.9912836803        0.1537412618       -5.1623790914
 H         4.3559785546       -0.0057346974       -5.8093561975
 H         1.1523046692       -1.8692174474       -0.5987398883
 H         1.2526107074       -0.2360352731       -1.3366669700
 H         1.2350964440        0.9481943222        3.3869597573
 H        -0.1922711355        0.0111556158        2.7284304386
 H         4.7228214546        1.0864386010        1.3192773833
 H         3.7449307742        0.0076120482        2.3148067215
 H         3.4288575935        1.7099668531        2.3362640635
 H         3.5210014355        1.4972029532       -1.2129366481
 H         1.8015125095        1.6091210006       -1.0602343996
 H         2.8233328934        2.6300426203       -0.1187811998
 H         1.0679001446       -2.1275804933        2.6622905451
 H         2.5566142393       -1.3184552256        3.1495533830
 H        -2.0954948325       -2.2831927813        6.2472526312
 H        -1.6240332218       -1.0781576961        5.0656445155
 H         2.6199171384       -3.3593246775        5.2815844162
 H         1.3965970912       -4.3210408776        4.3539574753
 H         1.4944201313       -4.5314042215        6.1622892596
 H        -0.1216703311       -1.3461832298        7.1174759825
 H         0.0209133339       -2.9364724751        7.5149675631
 H         1.5501881007       -2.0688211574        7.2478296811
 H        -3.9455509300       -1.7624550757        4.9736282540
 H        -3.3123064858       -3.3026545858        4.0850619729
 H        -6.5877846562       -0.7317715091        1.1182007047
 H        -6.4325214130       -0.0982096875        2.7857082434
 H        -2.0776178794       -0.9473051391        0.4675916428
 H        -3.6295793762       -1.3994645058       -0.3951906881
 H        -2.6151995821       -2.5429878806        0.3476742668
 H        -4.8825557243       -2.7935161937        0.7720987740
 H        -4.0821085549       -3.5928723864        2.0220351599
 H        -5.5954074318       -2.6557907275        2.4025497906
 H        -5.7815214545        1.8269801023        0.5324856779
 H        -7.5852136125        1.4570391574        0.6693393907
 H        -5.4985985601        5.8341666989        3.3340028606
 H        -4.8227011526        4.3184461284        3.5064209384
 H        -8.2093217144        5.1707110171        0.7025744465
 H        -9.0557832733        3.7079263219        1.0555529621
 H        -7.6512037451        3.6716353069        0.0314365437
 H        -8.5720603455        4.2025105393        3.5528591326
 H        -6.9355403549        4.2503710114        4.2598535045
 H        -7.7716162171        5.6716349480        3.3430731695
 H        -2.7515773832        6.0123224796        3.4365756794
 H        -3.6448911601        6.4915202699        1.8773907183
 H        -2.4689969604        4.2486513003       -1.6630978048
 H        -0.9076726370        4.8579210711       -2.1865495247
 H        -1.3559918370        6.7701372254       -0.6291500170
 H        -2.6216715720        7.2376553263        0.4712195543
 H        -3.0009531295        6.1225458450       -0.7780732997
 H         0.1623215112        5.2266159773        2.1770058221
 H         0.5536245067        5.9921453820        0.7367663252
 H        -0.6777539471        6.7949383166        1.9124414325
 H        -0.6628876411        2.5193846351       -3.1340749543
 H        -0.4010442970        2.1288181094       -1.5037599895
 H        -4.2203356493       -0.3076514379       -5.3972388158
 H        -2.4590995783       -0.3840028199       -5.9770972965
 H        -2.9061775381       -1.0264775446       -4.4080391416
 H        -4.1866578200       -0.1103751679       -2.5237781512
 H        -5.2787220288        0.6724898960       -3.6097457089
 H        -5.1224269792        1.2908713243       -1.9425289026
 H        -3.9876963009        3.8280838505       -2.6227814485
 H        -3.2583956695        3.6004784438       -4.1985295718
 H        -4.8448375269        3.1251127105       -4.0293916779
 Na       -1.8939044215        1.2416662947        1.3499355730
