155

 C         6.5302612968       -5.8368732367       -2.1187572781
 C         6.3853046961       -5.8310577320       -3.6314835333
 C         5.0768627664       -6.3038838040       -4.3650442544
 C         4.3200468686       -5.0075300857       -4.8669551377
 C         5.1161553504       -3.9987411910       -5.9329017043
 C         5.4548463320       -7.0628608320       -5.6451736412
 C         3.9897771927       -7.1187723327       -3.5385547261
 O         7.2747244760       -5.4006440192       -4.3027662883
 O         3.1473735679       -4.8445543669       -4.6606403730
 C         4.9059222557       -2.5243425901       -5.6007782466
 C         4.9994512862       -2.2365872385       -4.1280247463
 C         4.6977941755       -0.7740164491       -3.6212418600
 C         3.1392248764       -0.6307647525       -3.2321836607
 C         2.5292295943       -1.7674960076       -2.4491798030
 O         5.3080371511       -3.1002167114       -3.3539792026
 O         2.4781919315        0.3491289765       -3.6339878896
 C         5.4906645810       -0.4994529118       -2.2962545503
 C         5.0198748097        0.4173834878       -4.5667009803
 C         1.8220459022       -1.4753118488       -1.1116883849
 C         2.8646581252       -0.8687475584       -0.1215272262
 C         2.5710975100        0.5387490184        0.5877742749
 C         1.2661179229        0.4119197522        1.4043701278
 C         1.2757521194        0.4438837728        2.9189226493
 C         3.8443969989        0.8599894065        1.5729970345
 C         2.3896245248        1.6971980023       -0.3821268014
 O         3.8398784240       -1.5142622951        0.2862344655
 O         0.2447552594        0.5004284114        0.7750346118
 C         1.4549253701       -0.9922700425        3.4828853791
 C         1.1014565734       -1.0898757212        4.9942573503
 C         0.5967741409       -2.4470136765        5.5047457981
 C        -0.8176009193       -2.7369969035        4.7998324601
 C        -2.1308248771       -2.1801938786        5.3042377722
 O         1.2172853296       -0.0930100965        5.6913741075
 O        -0.7331228229       -3.5196054101        3.8843990798
 C         1.6704295741       -3.6372079944        5.2260656014
 C         0.2842310779       -2.3697755885        6.9573144909
 C        -3.2071166492       -2.2911271445        4.1659173841
 C        -2.8412091563       -1.4640571393        2.9621712593
 C        -3.8046554595       -1.5072347681        1.6857212510
 C        -4.6270073783       -0.1364603276        1.7596811555
 C        -6.1448221673       -0.0075464558        1.5479471833
 C        -2.9354696004       -1.6835324223        0.4589349900
 C        -4.7838128698       -2.6037223169        1.7500511487
 O        -1.9354665406       -0.6372910637        2.8654256977
 O        -3.9672825912        0.8430347512        1.8555064415
 C        -6.4495937324        1.3494524198        1.0222713823
 C        -6.8149592908        2.2689918858        2.2316060669
 C        -7.0488898224        3.8463162600        2.1232278798
 C        -5.7056148767        4.5056923276        1.8533230832
 C        -4.8262987439        4.9799970363        3.0497972602
 O        -7.1033595117        1.7679545810        3.3058853185
 O        -5.2355676319        4.4716493070        0.7529004166
 C        -7.9940647242        4.1889570849        0.8986311332
 C        -7.6498944161        4.3206451307        3.4835910157
 C        -3.6141624034        5.7005262413        2.5013302228
 C        -2.6979908054        4.7248574315        1.6454511027
 C        -1.5890037497        5.3182694234        0.6228443148
 C        -0.9466359172        4.0251111703       -0.0198411971
 C        -1.0863034601        3.9607684065       -1.5853294396
 C        -2.2190855687        6.3767573323       -0.3651968171
 C        -0.4089666481        5.8909936884        1.6899790471
 O        -2.6718866290        3.5367968283        1.8455581828
 O        -0.6036872143        3.1062633540        0.6969765079
 C        -1.0938106554        2.6210117723       -2.3321417247
 C        -2.3855059159        1.8179457870       -2.1284701707
 C        -3.4155546989        1.7415883886       -3.2485508995
 C        -2.6861688572        1.2363466047       -4.6662665310
 C        -3.1007699367       -0.1416792159       -5.1746852321
 O        -2.5755798210        1.2139513890       -1.0959579543
 O        -1.8631818247        1.8975220945       -5.1592854728
 C        -4.6267165244        0.8794290669       -2.8557053885
 C        -3.8083424682        3.2290872636       -3.6104954890
 H         7.5714067333       -5.7284799330       -2.0437909278
 H         6.0013883332       -4.9597466263       -1.7153730756
 H         6.1341995663       -6.7671637810       -1.5661027265
 H         6.1691302170       -4.1671643960       -5.9100776906
 H         4.7413421075       -4.3268240873       -6.9562136270
 H         5.5891735010       -8.0716193396       -5.4352199816
 H         6.1907623721       -6.7044831456       -6.3306213958
 H         4.5388024122       -7.0164307431       -6.2259436560
 H         3.3322818339       -6.3673050048       -3.1158517625
 H         3.2946625486       -7.8137551676       -4.0505479977
 H         4.6036951219       -7.7285704829       -2.8650559894
 H         5.5976733483       -1.8362453208       -6.1738590587
 H         3.9360432484       -2.2733175471       -5.9855787386
 H         1.7042859050       -2.1489241174       -3.0505809596
 H         3.3030650281       -2.4660670721       -2.2863453202
 H         5.2661450592       -1.2746697610       -1.4790082776
 H         5.2699234913        0.5316144287       -2.0215059371
 H         6.6330208995       -0.5994192617       -2.5089299625
 H         4.6573553419        1.3334815071       -4.1083870171
 H         6.0577385380        0.4259445365       -4.7180117984
 H         4.5724113677        0.2376828322       -5.5124386536
 H         1.3492912986       -2.4553835554       -0.8102900505
 H         0.9883332475       -0.7901575041       -1.1933149362
 H         2.0329932667        1.1487832537        3.3551714871
 H         0.2627784198        0.8254640468        3.1007594729
 H         4.6059697003        0.3761113397        0.9985615805
 H         3.7775849315        0.4195956534        2.5343561678
 H         3.9656487404        2.0157246056        1.4653801732
 H         3.3480461925        2.0544957523       -0.7329906018
 H         1.9487167518        1.4066651070       -1.3323217114
 H         1.8724515425        2.5684938166        0.0314978769
 H         0.7807162803       -1.6745786032        3.0099790880
 H         2.4064718240       -1.4414578984        3.2475770281
 H        -2.4233457514       -2.7757133483        6.1194213653
 H        -1.9356030534       -1.0883519976        5.6820548657
 H         2.6599637186       -3.3631266194        5.5003111154
 H         1.6188424652       -3.8715628242        4.1116043675
 H         1.3424577151       -4.4972394838        5.8271822624
 H        -0.4522113556       -1.5694381472        7.0459512637
 H        -0.2448281148       -3.2653128894        7.3955814516
 H         1.1963533701       -2.1732797348        7.5250982110
 H        -4.0829099982       -1.7750554871        4.5594873205
 H        -3.3829560977       -3.3132998791        3.9315293821
 H        -6.5777921459       -0.8255871192        0.8959750970
 H        -6.5868896090        0.0205753818        2.5815673487
 H        -2.1926640223       -0.8858996554        0.4209841580
 H        -3.5431944001       -1.6998668854       -0.4554996090
 H        -2.3324069275       -2.6206818872        0.4102370943
 H        -5.5803385337       -2.4677369770        0.9656454983
 H        -4.3116216378       -3.4986930419        1.4547447257
 H        -5.0744910872       -2.6470573146        2.7807735595
 H        -5.5852793826        1.6636121294        0.3959147259
 H        -7.3395562353        1.2361311209        0.4529842549
 H        -5.3611279291        5.7740505470        3.7122511972
 H        -4.5507898078        4.1937812239        3.8359273300
 H        -8.5734781163        5.1175434178        1.1066046127
 H        -8.8235086332        3.4759595210        0.7359224986
 H        -7.6022019301        4.3613069310       -0.0463271434
 H        -8.7467041347        4.0573914009        3.6197563433
 H        -6.9959082842        3.9372396423        4.2460033736
 H        -7.6625378866        5.3940556533        3.5798913986
 H        -3.0414828529        6.0024691144        3.3624942526
 H        -3.8921805050        6.5575893558        1.8351506990
 H        -2.0474184429        4.4137892128       -1.6308309262
 H        -0.4002286248        4.6724722545       -2.0799931356
 H        -1.7436510297        6.4542767994       -1.3457637663
 H        -2.2839271030        7.3513970445        0.0896570544
 H        -3.2440665285        6.2470613771       -0.5078008473
 H         0.4992310585        5.1919505611        1.6955640474
 H         0.0349301397        6.7881262732        1.2769995119
 H        -0.9213308204        6.0496551499        2.6558408743
 H        -0.9468754152        2.7286462278       -3.4110104167
 H        -0.1915153427        1.9750618265       -1.9158503975
 H        -4.1481939984       -0.1681189590       -5.4193063013
 H        -2.4909785022       -0.4741272335       -6.0353194620
 H        -2.8593295968       -0.8880218164       -4.4086293121
 H        -4.2298584316       -0.1729714871       -2.7052173007
 H        -5.4298848899        0.8672242250       -3.5849337954
 H        -5.0499363087        1.1805250583       -1.9374237102
 H        -4.4603646910        3.6005691595       -2.7928410240
 H        -2.8841728483        3.9204333525       -3.6340501431
 H        -4.3276579557        3.4024282938       -4.5723245816
 Na       -1.7533830885        1.3987623184        1.0924126652
