155

 C         6.5769651313       -5.7333590750       -2.3808542908
 C         6.4265084272       -5.7590831673       -3.8483892547
 C         5.0829854536       -6.2698118877       -4.4661378203
 C         4.2953034879       -4.8808897370       -5.0474870075
 C         5.1925263175       -3.9417724256       -5.8650046428
 C         5.4789496028       -7.1627904697       -5.6634252295
 C         4.1874348261       -7.0112577056       -3.4369874007
 O         7.4149742120       -5.3974971030       -4.5464296779
 O         3.1095788052       -4.6313743307       -4.8362737030
 C         5.0437474820       -2.4711143894       -5.4916093808
 C         5.0546490064       -2.1822016793       -3.9813713054
 C         4.8314501804       -0.7614765217       -3.4663112627
 C         3.2832483989       -0.6464074056       -3.1767037118
 C         2.5279225161       -1.8524902350       -2.5143947530
 O         5.1278397717       -3.0776476865       -3.1281884213
 O         2.6014267575        0.3012055239       -3.4133708632
 C         5.4477951397       -0.5144114354       -2.0478671730
 C         5.2255191632        0.3371131732       -4.5284352988
 C         1.8552112390       -1.3619476032       -1.2316185165
 C         2.8150040771       -0.9987477055       -0.0764870787
 C         2.6626008610        0.5201472285        0.5930314299
 C         1.3997902659        0.3665834952        1.5181477477
 C         1.3940032486        0.6278301869        3.0434946799
 C         4.0207617838        0.8881467183        1.3134346677
 C         2.4133273112        1.5640579534       -0.5594567131
 O         3.5666321258       -1.7249204587        0.4501264534
 O         0.2943786102        0.1533295342        1.0090519871
 C         1.2798398473       -0.7288384857        3.7245030746
 C         0.9249863204       -0.8612539060        5.2403278815
 C         0.4753878256       -2.4096810983        5.6912707718
 C        -0.7338393764       -2.7743670064        4.8651462964
 C        -2.2048812995       -2.1535543428        5.3053522747
 O         1.1451373522        0.0232238636        6.0157556454
 O        -0.6725959259       -3.4797312483        3.8849743303
 C         1.6130082713       -3.2987987290        5.2634264967
 C         0.2729880255       -2.5592982828        7.2257541782
 C        -3.1833559409       -2.3038379301        4.1060424734
 C        -2.8146360046       -1.4679055843        2.7972807492
 C        -3.8533902395       -1.4790793368        1.7113755714
 C        -4.5979639462       -0.0933997854        1.5173133243
 C        -6.0419291226       -0.0004411831        0.9605271673
 C        -3.1198864016       -1.7557547989        0.3694113629
 C        -4.8474482295       -2.6990876392        1.8600933545
 O        -1.7892749182       -0.8361343595        2.7755573254
 O        -3.9701681765        0.9226019907        1.8144401762
 C        -6.6632293947        1.5013858482        0.8925357294
 C        -7.0052913327        2.0765071087        2.2928425105
 C        -7.1706942697        3.6914431315        2.1599058238
 C        -5.6511132987        4.2971164141        1.9378740654
 C        -4.8431860443        4.9675562170        3.0949608068
 O        -7.1658072583        1.5554879524        3.3646871599
 O        -5.2895492445        4.2525083918        0.7518313684
 C        -8.0288280230        4.1673447479        0.9352477830
 C        -7.8411893964        4.2338034515        3.4069608413
 C        -3.6346307714        5.7507366284        2.4009472923
 C        -2.7854726857        4.6528453321        1.6810585664
 C        -1.6970673544        5.3388467107        0.7071821633
 C        -0.9579555429        4.1218221721       -0.1487078799
 C        -0.9511599517        4.0911662006       -1.7455298452
 C        -2.2551489763        6.4788982813       -0.1377609022
 C        -0.5816396962        5.9120098684        1.5330691712
 O        -2.9115744196        3.4574083530        1.9328138159
 O        -0.1815436058        3.3386624562        0.3584877787
 C        -0.9823892886        2.5826789398       -2.1844311928
 C        -2.3854698499        1.8781279660       -2.1439785479
 C        -3.3861640383        1.8287984917       -3.3275645005
 C        -2.5951735182        1.2570909224       -4.5949249636
 C        -3.0608985552       -0.0984452928       -5.1539949730
 O        -2.6816977479        1.1040353113       -1.2331865401
 O        -1.7382707980        1.9905185691       -5.1301228792
 C        -4.6276545192        1.0164137812       -2.9642569291
 C        -3.9198942384        3.2126628287       -3.7464242034
 H         7.4751571491       -6.3729026268       -2.1351722727
 H         6.6910811658       -4.6626399773       -2.1119387159
 H         5.7262807242       -6.1137810127       -1.9115023076
 H         6.2813276592       -4.1840564827       -5.8524156944
 H         4.8243941859       -4.2978278575       -6.7918567077
 H         6.1530429806       -7.9588687967       -5.2434221383
 H         6.0035304479       -6.4290627969       -6.2924463370
 H         4.8640520543       -7.7183228652       -6.3434733253
 H         3.9426555619       -6.4374601937       -2.5274859043
 H         3.2196525417       -6.9154319802       -3.9387709308
 H         4.4361736949       -8.0646439519       -3.3704293326
 H         5.7142812259       -1.7922197761       -5.9925396150
 H         4.0386598788       -2.1595449431       -5.9177377667
 H         1.7504899314       -2.1813317510       -3.1966510354
 H         3.2726421349       -2.7033152346       -2.2087584687
 H         5.6680911198       -1.5025998385       -1.6561331101
 H         4.7969675557        0.0713153571       -1.4321076430
 H         6.3487101038       -0.0713229283       -2.1266327598
 H         5.0726849612        1.3078196223       -4.0952740232
 H         6.2732029776        0.2054601167       -4.8581661602
 H         4.5155695975        0.2639582222       -5.3635027269
 H         1.2395009542       -2.1384045000       -0.7848241124
 H         1.0186780058       -0.6644656106       -1.4336779927
 H         2.2147635798        1.1819216182        3.4034493699
 H         0.5510978423        1.2849377630        3.2414756445
 H         4.6578252497        1.1663756583        0.4459888345
 H         4.4146968223       -0.0521887404        1.8155947199
 H         3.8181384721        1.7236498008        1.8900417590
 H         3.3404118362        1.9217437824       -1.0239921589
 H         1.9878215061        1.0894748788       -1.4293264437
 H         1.8513032957        2.4630814895       -0.3195752859
 H         0.6437070896       -1.4141794633        3.1111894263
 H         2.2682267498       -1.2497253152        3.6783037437
 H        -2.6660863885       -2.7038943233        6.2094264553
 H        -2.0561852591       -1.1761764541        5.5557875339
 H         2.4220193835       -3.1019977157        6.0562561193
 H         2.0413670381       -3.0878175350        4.3322566771
 H         1.4187197977       -4.3479924083        5.3397463241
 H        -0.5376983086       -1.9463476412        7.6522255560
 H         0.0600920475       -3.5911655122        7.4255686292
 H         1.2225969997       -2.3978101425        7.7043394240
 H        -4.2157026520       -2.0578868750        4.4716038032
 H        -3.1379528170       -3.4231231289        3.8906064467
 H        -5.8916505027       -0.3853618131       -0.0241016716
 H        -6.7591198126       -0.5233846460        1.5483481555
 H        -2.2813907503       -1.1040027677        0.1134152606
 H        -3.7879283615       -1.8128154804       -0.4880530656
 H        -2.7372881019       -2.7599045181        0.4545772778
 H        -5.0918094966       -2.9865646204        0.8730673965
 H        -4.3075666147       -3.5836629498        2.3328893775
 H        -5.6719081015       -2.4063375116        2.5279883261
 H        -5.9359266397        2.1507711979        0.4426440867
 H        -7.6207070227        1.3468014367        0.2960558105
 H        -5.3122151043        5.5552810895        3.8087111264
 H        -4.4528742703        4.1524235989        3.6645962158
 H        -8.2498605814        5.1623506993        0.8654494431
 H        -8.9497050960        3.6854189988        0.8628486647
 H        -7.4710152002        4.0380899031       -0.0781546012
 H        -8.7930499732        3.7257966519        3.5600184679
 H        -7.2681000437        4.2412172140        4.2957678836
 H        -8.1178292269        5.2727318927        3.2350769174
 H        -3.0560534663        6.2901761320        3.1936359870
 H        -3.8817551458        6.4263491587        1.6128461507
 H        -1.7266306619        4.7649885030       -2.2623760644
 H         0.0632977034        4.4155826943       -2.0543871189
 H        -1.4303015203        6.9530773490       -0.7154475686
 H        -2.8080708799        7.2563213952        0.3881520268
 H        -3.0151965620        6.2374106786       -0.9579418720
 H         0.1330639188        5.1805002645        1.7154471987
 H        -0.1031339466        6.6875280915        1.0044436859
 H        -0.9527084506        6.2505679920        2.4832513052
 H        -0.6139632814        2.5121217123       -3.2007875651
 H        -0.3581069053        2.0768130472       -1.5270577117
 H        -4.1112448093        0.0338250972       -5.4244931228
 H        -2.5929206820       -0.4333828633       -6.0697220100
 H        -2.8393717762       -0.9146283037       -4.4922939644
 H        -4.5238483357       -0.0083287573       -2.7224141967
 H        -5.4254359113        1.1437343609       -3.7251720794
 H        -5.0713464973        1.5503647949       -2.0530948714
 H        -4.4477973500        3.6805063998       -2.9595282266
 H        -3.1833462555        3.8482338018       -4.1517497086
 H        -4.6649613011        3.0643559261       -4.4817038874
 Na       -1.8373402537        1.2569412323        1.2158277955
