155

 C         7.0885637744       -5.9837515715       -2.8640839635
 C         6.7713128830       -5.8269203488       -4.3864035000
 C         5.2481615934       -5.9827851817       -4.8427420497
 C         4.6323453533       -4.5673402511       -5.1550570805
 C         5.5458677904       -3.5313572504       -5.9420033562
 C         5.3791432476       -6.7715481614       -6.1576772326
 C         4.4719571206       -6.6719473042       -3.7384742621
 O         7.6105506444       -5.6395332674       -5.2484556119
 O         3.5099400819       -4.2191618109       -4.9426462975
 C         5.2399041669       -2.1800619974       -5.3636534028
 C         5.4091312277       -2.2232254566       -3.8074448903
 C         5.1725382841       -0.9041138789       -3.0999251277
 C         3.5692570387       -0.7736422332       -2.9183480702
 C         2.8180619096       -1.8570900647       -2.0716038107
 O         5.7680990762       -3.1982987653       -3.1835370888
 O         2.9090929213        0.1623975201       -3.3613090686
 C         5.9376339563       -0.9073571128       -1.7269851318
 C         5.5177432567        0.4219181064       -3.8689083763
 C         1.9543066325       -1.3209623734       -0.9024191979
 C         2.6080719884       -0.9047644100        0.4691582894
 C         2.9442366077        0.5077871096        0.9139464657
 C         1.5355097917        0.8334283821        1.5632910732
 C         1.3679717905        0.8738580962        3.1534996237
 C         4.3394370734        0.5138054656        1.6528601753
 C         3.2504951190        1.4070862089       -0.3879656762
 O         2.8619447861       -1.8193256471        1.2947656109
 O         0.4942388702        1.1162171585        0.8974244775
 C         1.1979078947       -0.5339579865        3.5890625181
 C         0.7316495260       -0.6037847383        5.0754594657
 C         0.3116608559       -2.0228931431        5.9147966335
 C        -0.9439893745       -2.6646860476        5.0723830870
 C        -2.2981984972       -1.7303129008        5.0106547206
 O         0.6829454429        0.4363051982        5.6929784299
 O        -0.7155421467       -3.6704588074        4.5073596173
 C         1.3938991553       -3.0895922803        6.2004201402
 C        -0.1390214738       -1.5939218064        7.3538491217
 C        -3.2425463826       -2.2823336437        3.8674831140
 C        -3.2402462583       -1.2978382270        2.6953906318
 C        -4.2111428768       -1.5551336300        1.4507351721
 C        -4.9689752367       -0.2130158718        0.9202610127
 C        -6.3929954989       -0.3567609019        0.3382515000
 C        -3.2053128362       -2.0774704653        0.3324509681
 C        -5.2658268294       -2.6584601491        1.7765577486
 O        -2.4210838448       -0.4078752971        2.5856522686
 O        -4.4168819178        0.8709292586        0.8429507764
 C        -7.0951048504        0.9977166382        0.4481434551
 C        -7.0831083203        1.5865511670        1.7739496254
 C        -7.4457574471        3.0726122102        1.9876049358
 C        -5.9613963525        3.9686701615        1.8841927089
 C        -4.9987775882        4.2189844494        3.1134756391
 O        -6.9828284520        0.8522357452        2.7656212034
 O        -5.7767978264        4.4280938112        0.8094777042
 C        -8.3658974327        3.4938791937        0.7948413532
 C        -8.0689889751        3.2514514954        3.3473218062
 C        -3.8586323520        5.2437293782        2.6929644352
 C        -2.5939707869        4.6317054747        2.0450293451
 C        -1.6364428631        5.3682114920        1.0929677556
 C        -1.1891523767        4.2037098004        0.0685540935
 C        -1.4384513301        4.1985886264       -1.5106677996
 C        -2.1292041277        6.4911809695        0.1828322452
 C        -0.6215671774        5.9473553019        2.0667438201
 O        -2.2203622135        3.4621491773        2.2205882058
 O        -0.4286762239        3.3863377731        0.4569470141
 C        -1.2395099686        2.9509980475       -2.3182308753
 C        -2.3696822030        1.9649261984       -2.1311211152
 C        -3.2970806854        1.9011603982       -3.4268575464
 C        -2.3834181281        1.1686919392       -4.6158817064
 C        -2.8286774612       -0.2313190287       -5.1604567301
 O        -2.5751868954        1.2143813533       -1.2111286802
 O        -1.4675352321        1.7768937671       -5.0328906394
 C        -4.5661290185        1.0833175095       -3.1959584590
 C        -3.7632861123        3.2382195219       -3.9943585701
 H         6.8436356481       -6.9616984917       -2.5603781514
 H         8.1773800880       -5.8388788643       -2.7607088681
 H         6.3885054709       -5.2705342013       -2.3001890164
 H         6.6134926109       -3.6360867879       -5.6857565958
 H         5.4301643430       -3.7016464774       -6.9938416749
 H         6.0172865626       -7.6006341706       -6.1230627768
 H         5.8216943929       -6.2251744104       -6.9733523023
 H         4.3849974041       -7.0847870728       -6.4778985478
 H         4.6299830349       -6.2851830487       -2.7264135862
 H         3.3616442829       -6.4623674394       -4.0384080626
 H         4.5197191610       -7.7415087695       -3.5396618885
 H         5.8589720882       -1.4087882128       -5.7944530580
 H         4.2156390784       -1.7612117493       -5.6646730006
 H         2.1156135346       -2.3844777798       -2.6864995184
 H         3.5600352951       -2.6580854604       -1.7705436921
 H         5.4565180379       -1.5850956873       -1.0211219027
 H         5.9824287014        0.0508850065       -1.1992379787
 H         7.0360038738       -1.2569511795       -1.9131661104
 H         5.2804859769        1.2365837761       -3.1554469245
 H         6.6012066868        0.5124753690       -4.0322921892
 H         4.9593230469        0.5848714224       -4.8205454733
 H         1.3957478768       -2.2440225982       -0.6489340250
 H         1.3116427608       -0.5104421591       -1.3279203405
 H         2.0667601446        1.4175242402        3.7464176704
 H         0.4641057584        1.4334921999        3.2914477955
 H         4.6832262282        1.5434639184        1.5456600106
 H         4.9377873230       -0.2224531888        1.1765833622
 H         3.9495522629        0.2984588538        2.7439473811
 H         4.2704777369        1.3918542938       -0.7210845845
 H         2.5572292351        1.1462613198       -1.1709030337
 H         3.0083113590        2.4766847378       -0.1470131334
 H         0.4885236838       -1.0566239733        2.9491295057
 H         2.1657995104       -1.0923130562        3.5869664442
 H        -2.6946930269       -1.8761400937        6.0645020587
 H        -1.9625261903       -0.7303163423        4.9684290007
 H         2.1548289754       -2.7522506794        6.8602850856
 H         1.9314542707       -3.5571497350        5.3332226063
 H         0.9098379426       -3.9408712730        6.6231996185
 H        -1.1251987722       -1.0374899729        7.2910393759
 H        -0.3842139944       -2.5261527775        7.9874451628
 H         0.5463719616       -0.9768751215        7.8867708793
 H        -4.2462164601       -2.5126838475        4.2589530013
 H        -2.9922423788       -3.2908747307        3.5294807730
 H        -6.1756456084       -0.7799201997       -0.6950745305
 H        -7.0203594184       -1.0982558243        0.8651986249
 H        -2.4947109803       -1.2935347849        0.0524177451
 H        -3.7465006892       -2.2647628057       -0.6173110976
 H        -2.6788260697       -2.9703396676        0.6880941489
 H        -5.9747300378       -2.9919176284        0.9702113120
 H        -4.6970931287       -3.5605257211        2.0098361252
 H        -5.7655155761       -2.3323184709        2.6826106539
 H        -6.6318564192        1.6748157131       -0.2793564137
 H        -8.0951946920        0.8671024879        0.0285698417
 H        -5.4553977307        4.7187984903        3.9390710663
 H        -4.6159213276        3.1727871602        3.4677562322
 H        -8.8509258546        4.4888298149        0.7756193015
 H        -9.2328702723        2.7431943398        0.9055195348
 H        -8.0154560871        3.2450186998       -0.1253189000
 H        -9.2013119872        3.0068818971        3.4274991137
 H        -7.7177431684        2.6065795194        4.1109699291
 H        -7.8643976992        4.2687164801        3.6703456238
 H        -3.5420337220        5.9134686100        3.5086375939
 H        -4.1410942727        5.9355476542        1.9345504536
 H        -2.4446531710        4.6288185144       -1.7606757269
 H        -0.7564109871        4.9039506499       -1.9752033074
 H        -1.3595605136        6.8785000287       -0.5361371906
 H        -2.3903163253        7.3846887644        0.7009721630
 H        -3.0058206619        6.2499613230       -0.3544297088
 H        -0.7274188032        7.0964025537        2.1380137942
 H        -0.8120538339        5.5959160123        3.1005974152
 H         0.4393851935        5.6883001879        1.9686098867
 H        -1.1949526873        3.1173015837       -3.3179939386
 H        -0.2270720622        2.6130180121       -1.8957928351
 H        -3.8351259344       -0.2606506715       -5.5646514679
 H        -2.1798008172       -0.4162861786       -6.0840033967
 H        -2.7460964734       -1.0229659824       -4.3983060266
 H        -4.3620175622        0.2093803028       -2.5891267625
 H        -5.0484566108        0.6696129875       -4.0809609153
 H        -5.3669120843        1.6371616859       -2.7101711333
 H        -4.1417698360        3.9358133716       -3.2165052056
 H        -2.8580357026        3.7638988373       -4.5213172802
 H        -4.4809660650        3.0119107990       -4.7799109411
 Na       -1.9824215726        1.3328833629        1.1192977167
