155

 C         7.1402294591       -6.4977938157       -3.5689561557
 C         6.7807759712       -6.0112127404       -5.0305514554
 C         5.2430311671       -5.8361303513       -5.4617039416
 C         4.9714328072       -4.4224485233       -5.0437225230
 C         5.4104666258       -3.2222609603       -5.9336585424
 C         5.2774380435       -6.1895713246       -7.0290803024
 C         4.4447519590       -7.0244363893       -4.8924056192
 O         7.6456852275       -5.8222437180       -5.8424806281
 O         4.3816070307       -4.2780136219       -4.0148933661
 C         5.5092931577       -1.9197662984       -5.0727425226
 C         6.1434583210       -2.0711498342       -3.7111304858
 C         5.9075147361       -0.8811996257       -2.7065503536
 C         4.4059489646       -0.8385403154       -2.2234298470
 C         3.7266547885       -2.1109701684       -1.5893433886
 O         6.9995104970       -2.8835488142       -3.4994861933
 O         3.6747292416        0.1035123402       -2.5027593660
 C         6.8116217134       -0.9361565218       -1.4298743117
 C         6.1635564903        0.4013545169       -3.5123104747
 C         2.6421567826       -1.7642068828       -0.6422518069
 C         3.2737590457       -1.1798063270        0.6214145632
 C         2.8323268259        0.2923076432        1.0918497428
 C         1.3266017391        0.2842708638        1.4244992928
 C         0.9223581198        0.7496377330        2.8800701462
 C         3.7605513251        0.6835100449        2.2961335384
 C         2.9301769399        1.4977573616        0.0815627351
 O         3.9664831326       -1.8571873639        1.4008338134
 O         0.4460006984        0.1168832384        0.5897634487
 C         1.0188061164       -0.3335534007        4.0152677008
 C         0.1143294206       -0.0050184583        5.1857946459
 C        -0.4837680126       -1.3925813127        5.8402025936
 C        -1.6336784794       -1.8883913806        5.0727872095
 C        -2.9204961622       -0.9653142959        4.9725059257
 O        -0.0414460569        1.0912014526        5.7072574369
 O        -1.6093035972       -2.9081352127        4.4861559476
 C         0.5740327010       -2.4631489680        5.9271983526
 C        -1.0135302831       -0.9294647607        7.2395221056
 C        -3.8057407508       -1.2666363973        3.7814308751
 C        -3.1351550463       -0.9266755081        2.4908635351
 C        -3.6746114018       -1.6280450195        1.1899743498
 C        -4.6523355645       -0.5037406329        0.6864129548
 C        -6.1556465515       -0.7819008835        0.5976027679
 C        -2.6312631532       -1.8154379892        0.1319840335
 C        -4.4127338894       -2.9751464928        1.4119489091
 O        -2.3304625706       -0.0020832778        2.3784924941
 O        -4.1799988210        0.5602701624        0.2685362926
 C        -6.9848067525        0.5080713575        0.4957492714
 C        -6.9560131242        1.2594984042        1.8131049055
 C        -7.6698422875        2.6721798408        1.9114053912
 C        -6.5747319251        3.7516938733        1.9789990809
 C        -5.6888373395        4.0366637403        3.2727112156
 O        -6.2614162325        0.8054407377        2.7214312436
 O        -6.3786633452        4.4282458748        1.0169191162
 C        -8.4990407489        2.8971998562        0.6233282990
 C        -8.5204928711        2.6617013479        3.1518892731
 C        -4.4199999404        4.9717360561        2.9729686075
 C        -3.4568636712        4.1954000527        2.0385697245
 C        -2.1130333027        4.9464209356        1.5334940964
 C        -1.6399789569        4.1290056091        0.2668459864
 C        -2.2214735347        4.5158089830       -1.0446006589
 C        -2.5105211877        6.4520425440        1.0562345082
 C        -1.1480488971        4.9146837373        2.7968399607
 O        -3.6677719179        3.0018037645        1.8250290875
 O        -0.7738391409        3.2558281939        0.4166273502
 C        -1.5562785059        3.5911163102       -2.1196425188
 C        -2.2131945414        2.2113773214       -2.3224636238
 C        -3.0313610477        1.9373324572       -3.5924119803
 C        -1.9704040880        1.2815998912       -4.7116796127
 C        -1.8847803642       -0.2708208687       -4.7358098555
 O        -2.1739346423        1.2975633449       -1.5375701519
 O        -1.4146186083        2.0285686927       -5.4791651581
 C        -4.2561557896        1.0069094288       -3.2434130145
 C        -3.6253614450        3.1888426667       -4.1456939286
 H         6.4213582589       -7.2328095328       -3.2544752778
 H         8.1673475063       -6.9283064735       -3.6081251632
 H         7.2146309549       -5.6028719285       -2.9418391288
 H         6.3372714544       -3.5571402394       -6.4197285204
 H         4.6718556245       -3.1022274599       -6.7115319854
 H         5.4692751939       -7.2624495181       -7.0443097254
 H         5.9264027789       -5.5010789035       -7.5652758174
 H         4.3413017069       -6.0924731464       -7.6061877983
 H         4.0389607483       -6.9295820285       -3.8823630606
 H         3.5837011613       -7.2307478131       -5.5728134680
 H         4.9691352163       -8.0018627584       -4.8815888097
 H         6.3003689118       -1.2937201053       -5.5843669547
 H         4.5216306177       -1.5104745712       -5.1254414580
 H         3.3845456887       -2.7531260730       -2.4031638649
 H         4.5298814879       -2.7191370086       -0.9796176074
 H         6.4155342340       -1.5821067638       -0.7178211107
 H         6.9336351244        0.0332525979       -0.9968242608
 H         7.8412987024       -1.3416224438       -1.6994633606
 H         6.4239609296        1.2014113870       -2.7984143442
 H         7.0606721261        0.3874933304       -4.1931388934
 H         5.3168266793        0.7753388126       -4.1396706049
 H         2.1122153286       -2.7169333646       -0.3716198933
 H         1.8871870158       -1.0668623554       -1.0947002279
 H         1.3470583699        1.6987355176        3.0431166377
 H        -0.1439567045        0.8355781880        2.8367097012
 H         3.5972696794        1.7509061969        2.6453450473
 H         4.7779342951        0.6916818711        1.8656419246
 H         3.8367899259       -0.1931766915        3.1093723840
 H         3.9482959247        1.5402606227       -0.3378733179
 H         2.2244398987        1.4105629181       -0.7350585992
 H         2.7671404126        2.4067429810        0.6248089618
 H         0.6237419719       -1.3184371348        3.6535376267
 H         1.9226427995       -0.4624633744        4.5945524218
 H        -3.4790233452       -1.1906508864        5.9063822330
 H        -2.6500293980        0.0230345027        4.9433201454
 H         1.3385194457       -2.2240105476        6.6445696747
 H         1.1149794585       -2.7658495729        5.0277595427
 H         0.2671602176       -3.3733157642        6.3190328382
 H        -1.5985417836        0.0056730416        7.0746036628
 H        -1.5554764746       -1.7581696995        7.7149219363
 H        -0.1944667785       -0.6936444882        7.8499975980
 H        -4.7145267328       -0.6561954497        3.9036881466
 H        -4.1298067807       -2.3284450897        3.9041944312
 H        -6.2245361104       -1.5003473841       -0.2171602535
 H        -6.5172276601       -1.4195461306        1.4414843438
 H        -1.9330249495       -0.9875058190        0.0814919223
 H        -3.0529738829       -2.0988836633       -0.8200567553
 H        -2.0514838182       -2.6486961718        0.5151060916
 H        -4.9025050394       -3.3199832208        0.5590021054
 H        -3.8844620031       -3.8060310986        1.8887214606
 H        -5.2969749498       -2.8355978755        1.9763725466
 H        -6.7110109841        1.1348537407       -0.3465004933
 H        -8.0850544739        0.2081474243        0.2981292227
 H        -6.2024857379        4.6043931441        4.0189365929
 H        -5.3972605950        3.0748653202        3.6960375001
 H        -9.0155555823        3.8328879662        0.8055703359
 H        -9.2475086943        2.0550996064        0.4969744298
 H        -7.8447952625        3.1242615743       -0.1084199108
 H        -8.9170904143        1.5718402049        3.2300769720
 H        -8.1305996331        2.9074518486        4.0926894876
 H        -9.4347322233        3.2866906451        3.0109187913
 H        -3.9052123655        5.1651439494        3.9236411052
 H        -4.6580119158        5.9458346879        2.5536724792
 H        -3.2963541218        4.4072338542       -1.0542970158
 H        -2.0165882203        5.5933483721       -1.2996619482
 H        -1.7148819532        6.9164857408        0.4950434489
 H        -2.5914790460        7.1354036667        1.8618943014
 H        -3.4035224162        6.3703422920        0.4206388901
 H        -1.6840331936        5.1051686855        3.7659730324
 H        -0.6274032517        3.9259442287        2.9205886407
 H        -0.3471402804        5.6439090606        2.7162438145
 H        -1.3541373227        3.9985749640       -3.0564286113
 H        -0.5704672552        3.4466557697       -1.6666705980
 H        -2.8817338499       -0.6597927120       -4.9699913274
 H        -1.0251182161       -0.6971798037       -5.3335926849
 H        -1.6920191164       -0.6529752385       -3.7366698394
 H        -3.9529426095        0.0656630147       -2.9209325569
 H        -4.9528215468        0.8300486726       -4.0534543956
 H        -4.8265384770        1.4430082955       -2.3847340107
 H        -4.4899625257        3.5292719938       -3.6010549282
 H        -2.8424224642        4.0163644560       -4.1957883557
 H        -3.8926730306        2.9930780596       -5.1565839665
 Na       -1.9310367614        1.4069559396        0.7179063924
