155

 C         7.1517842461       -6.4669929451       -3.7467463030
 C         6.8179004572       -6.2155463066       -5.2686587629
 C         5.2035036380       -5.8088777050       -5.7051202024
 C         4.9804660676       -4.4527962911       -5.0106677321
 C         5.6451773453       -3.2123170258       -5.7017083287
 C         5.1708158837       -5.7116771954       -7.1940408116
 C         4.3797112616       -7.0414741058       -5.1861584942
 O         7.6715368797       -6.1630422143       -6.1028787347
 O         4.4828780037       -4.3157059663       -3.9441953182
 C         5.3242229951       -1.9414455002       -4.9085366323
 C         6.3636534927       -1.9745693785       -3.7274291374
 C         6.1841903900       -0.8726892695       -2.5639208203
 C         4.7420152909       -0.7876902260       -2.2507307992
 C         4.1665917049       -1.9434231684       -1.4058122273
 O         7.3102516356       -2.6871422228       -3.8008805466
 O         3.9314726281        0.0310651095       -2.7168097653
 C         7.1631418230       -1.2994143333       -1.3681160642
 C         6.7219841526        0.4101971791       -3.2021503063
 C         2.9871293398       -1.5606469841       -0.5639103117
 C         3.4409580482       -1.0111665010        0.7500337579
 C         3.0446701797        0.4416316738        1.1636035943
 C         1.4556688289        0.5050588233        1.6809103589
 C         1.2482434691        0.8513618238        3.2325488407
 C         4.0292160747        0.9389314349        2.2350658775
 C         3.0871913750        1.4612127786       -0.0422647705
 O         4.1433499564       -1.6605071509        1.5154762739
 O         0.5159952322        0.4307758159        0.9128692452
 C         0.9816784962       -0.4248146761        4.1447423845
 C        -0.1608423600        0.0223300490        5.2031832853
 C        -0.8508269764       -1.1658803306        6.0249389371
 C        -2.0211875642       -1.6451579631        5.1177302880
 C        -3.3053921662       -0.8761023791        5.2259643729
 O        -0.8030864035        1.0454916410        5.1816295549
 O        -1.8587101749       -2.5029860673        4.2548720372
 C         0.0983109947       -2.3792916774        6.1640254676
 C        -1.2485930305       -0.5223503631        7.4155235551
 C        -4.1653095949       -1.2489358840        4.0023687558
 C        -3.4765902550       -0.9705737306        2.6968128274
 C        -3.6976866665       -1.8200480509        1.3104647759
 C        -4.7216859954       -0.8412113310        0.5448948358
 C        -6.2223853436       -1.1286340561        0.6530069995
 C        -2.3656557784       -1.6975335951        0.4838742284
 C        -4.1868792738       -3.2699361631        1.4637254162
 O        -2.6842764919       -0.0589835158        2.6257892094
 O        -4.2893069832        0.0738771602       -0.1479968443
 C        -7.2331546228        0.1319623192        0.6144851328
 C        -7.1161382509        1.1267799088        1.7807087151
 C        -7.7390961857        2.4762909930        1.8848147510
 C        -6.7014104941        3.6584020867        1.8829032832
 C        -5.7039439062        3.6853710303        3.1795717643
 O        -6.2445345095        0.8642608502        2.5934927562
 O        -6.6326425726        4.4676174973        1.0013936243
 C        -8.6416437594        2.7377253032        0.6000184719
 C        -8.6160258529        2.5992756454        3.1774898064
 C        -4.5366797575        4.6313346395        2.8572223457
 C        -3.4463479671        3.9710580032        2.0150941927
 C        -2.1755124973        4.8603147610        1.7435973254
 C        -1.5622749145        4.1595942768        0.3997259176
 C        -2.2893162725        4.4562899435       -0.9855314612
 C        -2.7099974747        6.2997402179        1.5442305498
 C        -1.3152746442        4.7409624186        2.9345127336
 O        -3.6377879085        2.8443554135        1.6262050572
 O        -0.6234731919        3.3892762937        0.5154817222
 C        -1.7036910765        3.6094126736       -2.1626465692
 C        -2.2897096408        2.2802524132       -2.3920490385
 C        -2.9901470505        2.1250485617       -3.7921806461
 C        -1.7908524540        1.5301132497       -4.8419124667
 C        -1.1893578061        0.1678732602       -4.6109676148
 O        -2.1168012356        1.2475937502       -1.7750648926
 O        -1.4829626807        2.1905541592       -5.8441103155
 C        -4.1218734700        1.0015383500       -3.6999305437
 C        -3.7494295661        3.4097814857       -4.4345210194
 H         6.9450202391       -7.4066625165       -3.4118545154
 H         8.1778530008       -6.1659195476       -3.8228527705
 H         6.6167863967       -5.7126935847       -3.1274581500
 H         6.7511459015       -3.3002906192       -5.6197474965
 H         5.3867997514       -3.3168698413       -6.7393069730
 H         5.3204644439       -6.7200597694       -7.6341025193
 H         6.2068949577       -5.3083393891       -7.4708819814
 H         4.3060365707       -5.1460526352       -7.7554888068
 H         4.5898201175       -7.3288328614       -4.2287031502
 H         3.3390499567       -6.8797562999       -5.3510466619
 H         4.5946550487       -7.9334062664       -5.6963051594
 H         5.4911599334       -1.0667104529       -5.5822841880
 H         4.3045331720       -1.9699514418       -4.5572718082
 H         3.9251953795       -2.7600024829       -2.0672850871
 H         5.0391232667       -2.2820035318       -0.6827965094
 H         7.2895078656       -2.3381308088       -1.4141216762
 H         6.7475484304       -1.0784725012       -0.2978037876
 H         8.1215370293       -0.7566740732       -1.4827003275
 H         6.2596342919        1.2632396575       -2.8004078478
 H         7.7560294645        0.5589361309       -3.0115351612
 H         6.5480656691        0.4507506627       -4.2546080138
 H         2.3328197023       -2.3936234738       -0.3139905922
 H         2.1822196277       -0.9309434989       -0.9972043574
 H         1.9085253924        1.4329172041        3.7830429769
 H         0.3704198009        1.4620573929        3.2315283370
 H         3.6919592030        1.9728199283        2.5358471423
 H         5.0677622351        0.9664874853        1.9067989757
 H         3.9604258235        0.3868922317        3.2265177175
 H         4.0749545567        1.7434117936       -0.3984084578
 H         2.3843399077        1.2242590561       -0.8235273401
 H         2.7042077814        2.3845581638        0.3812978912
 H         0.5607170100       -1.3946756518        3.6627223446
 H         1.9117507791       -0.6581708975        4.6890034486
 H        -3.8133942460       -1.3160898955        6.1424592290
 H        -3.1622449382        0.1083494521        5.3344583689
 H         1.1043201850       -2.1962189464        6.4565616008
 H         0.2251338757       -3.0784993000        5.2783772654
 H        -0.2221216670       -3.1470385848        6.8437749423
 H        -1.7514653176        0.3851787105        7.1327327424
 H        -1.8170312249       -1.1921201205        8.0411727220
 H        -0.3950227030       -0.2067464341        7.8789423515
 H        -5.0587193114       -0.6535562267        4.0684552477
 H        -4.4241628096       -2.3183573364        4.1419920870
 H        -6.4994138504       -1.7672954416       -0.2064732372
 H        -6.3538186160       -1.7138639334        1.6201891476
 H        -2.3061064268       -0.8198795864       -0.1472693814
 H        -2.3498162169       -2.5227194034       -0.2325771774
 H        -1.5313159910       -1.8120789051        1.1716096239
 H        -4.6942512918       -3.6217401990        0.5676124915
 H        -3.4612053108       -4.0491247999        1.6706672425
 H        -4.9068466932       -3.3743008404        2.2655119640
 H        -7.0577954955        0.6302466499       -0.3175670858
 H        -8.2469465315       -0.3417929909        0.6471305876
 H        -6.3266124134        4.0402480213        3.9925309863
 H        -5.3206625454        2.6332288242        3.4646742540
 H        -9.1540850026        3.6931399589        0.8174069125
 H        -9.3537139625        1.8567799473        0.4897707237
 H        -7.9582110940        2.6989219368       -0.1991528883
 H        -9.5932654799        2.1233074631        2.8717924861
 H        -8.2027186183        2.0863967262        4.0558130005
 H        -8.5736097184        3.6268545436        3.5390115179
 H        -4.0341584274        5.0122312699        3.7677015785
 H        -4.9430672420        5.4527996159        2.2650300285
 H        -3.3485609265        4.2363136643       -0.8165748685
 H        -2.2228584431        5.5344678886       -1.2564452086
 H        -1.9337894108        7.1068123659        1.4961777579
 H        -3.3241891894        6.5422542432        2.4064673955
 H        -3.3457231872        6.1838022779        0.6449116753
 H        -1.3553089062        5.6246864927        3.5501688171
 H        -1.6947035251        3.9233095618        3.7190780784
 H        -0.2572246850        4.4317810371        2.7145835631
 H        -1.6954542184        4.1239830469       -3.0110972795
 H        -0.6329581031        3.4391449345       -1.9616840156
 H        -1.9275656029       -0.5700836408       -4.8869794036
 H        -0.2271424609       -0.1619453343       -5.0958333274
 H        -1.0194992141        0.1252916302       -3.5474854204
 H        -3.8194516926        0.2302017472       -3.0526192819
 H        -4.3899067526        0.5643378960       -4.6635540740
 H        -5.0958859823        1.4152590901       -3.2850852002
 H        -3.8300849583        4.2403291382       -3.8132442512
 H        -3.3263903202        3.7073374154       -5.4081289076
 H        -4.6977261677        3.0696656651       -4.6632378955
 Na       -1.8885916688        1.2248780920        0.7078397139
