155

 C         7.2890003826       -6.3046218660       -4.4258264035
 C         6.7486628618       -6.2162654946       -5.8892775518
 C         5.2467793041       -5.4110280682       -5.9831803106
 C         5.2681866956       -4.1001567674       -5.0578419179
 C         6.0567594677       -2.8275383879       -5.5598462405
 C         4.9857587111       -4.9892666450       -7.4371491696
 C         4.1730441707       -6.4332204349       -5.5347016823
 O         7.2243446990       -6.7813045490       -6.8334609797
 O         4.5297364580       -4.1186950998       -4.0706676200
 C         5.9840835933       -1.7954899083       -4.5133259319
 C         6.9176538885       -2.0823498499       -3.3084261325
 C         7.0639977496       -1.0193727464       -2.2008405201
 C         5.5184542205       -0.7213400783       -1.7349736584
 C         4.9838935612       -1.6372408314       -0.5848834212
 O         7.1963965722       -3.2587823775       -3.1714642537
 O         4.8988708279        0.1170456135       -2.3062478504
 C         7.9833970041       -1.7346383928       -1.1404612720
 C         7.6249119402        0.3398559275       -2.7872730977
 C         3.4566812435       -1.2207555077       -0.3697974385
 C         3.3949987852       -0.2586928384        0.9121595033
 C         2.4349586942        1.0573053595        0.9433675537
 C         1.0608150605        0.5694098739        1.5495410280
 C         0.9240201295        0.6207044413        3.1228346856
 C         3.1795910020        1.9447122204        1.9314078906
 C         2.3075797676        1.6984511440       -0.4061993699
 O         3.8821087421       -0.5487414724        1.9866988064
 O         0.2501905441        0.2496963996        0.6776569077
 C        -0.4536379866        0.2561841185        3.7558003002
 C        -0.7055953690        0.6151933652        5.1714611307
 C        -1.0385531567       -0.6175790518        6.2340383648
 C        -2.0416939200       -1.5475403204        5.5312017355
 C        -3.4489595273       -0.9601326456        5.3063524290
 O        -0.4649721483        1.7082786247        5.6486108035
 O        -1.6690432298       -2.6912339656        5.1879619233
 C         0.2929456608       -1.3107549846        6.3526821320
 C        -1.6394711564       -0.0573472108        7.6025663926
 C        -4.2377441532       -1.7112622891        4.2500409504
 C        -3.9018566693       -1.1757570772        2.8213859328
 C        -4.1898084529       -2.1395136223        1.6137597014
 C        -4.6310857595       -1.2648691020        0.3615684074
 C        -6.0367906079       -1.2538042199       -0.1288211842
 C        -2.8689069005       -2.9948443796        1.3358780343
 C        -5.1896009819       -3.2490439148        2.1174448304
 O        -3.4782694339       -0.0669224174        2.6744880455
 O        -3.7481283757       -0.6831467757       -0.2825335365
 C        -6.7136851313        0.0391546194       -0.2495904021
 C        -7.2717318104        0.4616185783        1.1708580498
 C        -8.0142456508        1.7824585005        1.3568130700
 C        -6.7600923745        2.8073791646        1.3084201730
 C        -6.1545978995        3.4265085382        2.5843589290
 O        -7.1768129754       -0.2892481951        2.1078229072
 O        -6.2022555811        2.9679419326        0.2524691035
 C        -9.0161116499        2.0581340024        0.2347964928
 C        -8.8401222981        1.6938694641        2.7522320042
 C        -4.9429757923        4.3752283282        2.3449082814
 C        -3.6808353131        3.6281877387        1.9298540094
 C        -2.3921245164        4.4334825688        1.8429214346
 C        -1.7334444640        3.9900546165        0.5691409614
 C        -2.0992435118        4.6535282652       -0.7664584483
 C        -2.7203502451        5.9251265170        1.7711183527
 C        -1.4822430818        4.0255819225        3.0595104828
 O        -3.7211575694        2.5013547224        1.4398600773
 O        -0.7254290391        3.3410477495        0.5840100669
 C        -1.6151644007        4.0025812290       -2.0461291093
 C        -2.0662039249        2.5208625860       -2.3021913989
 C        -2.4505460741        2.2471538427       -3.8064061176
 C        -1.0949214130        2.5409146494       -4.6769284849
 C         0.0932481583        1.5926926968       -4.6541678033
 O        -2.2933773694        1.6626422166       -1.4781634863
 O        -1.0132706945        3.6290212071       -5.2730074734
 C        -2.9085967898        0.7068311733       -3.9086114184
 C        -3.6064126014        3.1790086995       -4.1908360910
 H         8.0988487843       -7.1537763633       -4.4966627912
 H         7.7961596064       -5.3607972938       -4.2916821636
 H         6.4273226033       -6.4478506259       -3.7867350075
 H         7.0871963910       -3.1580141708       -5.8121236540
 H         5.6544791700       -2.4179859745       -6.4670405418
 H         5.1506557937       -5.8851653936       -8.0728773865
 H         5.4931158383       -4.0735207731       -7.6670536040
 H         3.9884633585       -4.6824205989       -7.5102413722
 H         4.2339757866       -6.3846912478       -4.4146345963
 H         3.1838449402       -6.1773460152       -5.8803246890
 H         4.3364471309       -7.4352316409       -5.9241701906
 H         5.9609072536       -0.8133120031       -4.9246751655
 H         4.9150324878       -1.8193452702       -4.1898199723
 H         5.1044127187       -2.6791254716       -0.8704972818
 H         5.5847305914       -1.4203926070        0.2790570504
 H         7.5950111540       -2.7333629820       -0.9195885914
 H         8.1123347758       -1.1741030093       -0.2688260747
 H         9.0199034194       -1.8918840966       -1.6672587013
 H         8.2099255337        0.8262010886       -1.9967296077
 H         8.2837076172        0.1048840685       -3.5947232185
 H         6.8261389152        0.9640995508       -3.1769352577
 H         2.9150535456       -2.1074252513       -0.1878623098
 H         3.0837422618       -0.6409348652       -1.2447127435
 H         1.7583719235       -0.0731156892        3.4435869697
 H         1.0930464538        1.6533137541        3.4642044780
 H         2.6075355994        2.7857230741        2.1485649869
 H         4.1092381533        2.3968733148        1.6998031231
 H         3.4935777613        1.4545319342        2.8987487864
 H         2.5849493658        0.9852963431       -1.1313117209
 H         1.2577625519        1.9423397966       -0.6005777136
 H         2.9569144921        2.5852872150       -0.4880073080
 H        -1.2425967055        0.6566585890        3.2153201530
 H        -0.6207011288       -0.8209015108        3.5411369856
 H        -4.0337229274       -0.8362198580        6.1577843313
 H        -3.2569157992        0.1137583307        4.9002132439
 H         1.1640910716       -0.7876927855        6.7273294931
 H         0.6987820153       -1.6477578902        5.4813502663
 H         0.3720034451       -2.1835151917        6.9985808343
 H        -2.6630503366       -0.2782027716        7.7193592038
 H        -1.1233473822       -0.5418322869        8.4077992101
 H        -1.4953358710        1.0454877333        7.6428915863
 H        -5.3492512788       -1.7562553223        4.3638490428
 H        -3.9160142252       -2.7528537621        4.2976816403
 H        -6.0344724760       -1.7187227930       -1.1295725070
 H        -6.5753163948       -1.9618175280        0.4870005966
 H        -2.2049716906       -2.2859434407        0.8846817828
 H        -3.1889488145       -3.7522034012        0.6596471787
 H        -2.4122843044       -3.3543904785        2.2349477631
 H        -5.4642655142       -4.0036037376        1.3620802785
 H        -4.6068729947       -3.6391930104        2.8805540409
 H        -6.1333339964       -2.8749460399        2.4886354320
 H        -6.0968242690        0.8593500634       -0.5715361915
 H        -7.6325592562        0.0334664898       -0.9121325928
 H        -6.8847877737        3.8188655495        3.2748452821
 H        -5.7650351405        2.5212043110        3.1204729185
 H        -9.7162946139        2.8444104445        0.4963754873
 H        -9.6016895329        1.1695675386        0.1762803391
 H        -8.5575574631        2.4704449092       -0.6749709128
 H        -9.4485487565        0.8203087056        2.5855895035
 H        -8.2970757685        1.4511481904        3.6543048364
 H        -9.4813471001        2.5758167328        2.8427707179
 H        -4.6710346822        4.9664575934        3.2332667104
 H        -5.2784624434        5.0573241700        1.5776476340
 H        -3.1959915509        4.7996636018       -0.6874624912
 H        -1.5936634006        5.6213231487       -0.6073228134
 H        -1.7944516299        6.4131224386        1.4437226907
 H        -2.9436885471        6.2646264530        2.7805608414
 H        -3.4515058128        5.9835770812        1.0442287743
 H        -0.6898197231        3.3374002361        2.7072793289
 H        -1.0136560905        4.8632706417        3.3865141562
 H        -2.0048291266        3.5468329487        3.8512681991
 H        -1.9404862727        4.7308693271       -2.9014516342
 H        -0.5427082860        3.9464311759       -2.0370742919
 H        -0.3144347983        0.6043087599       -4.9727470168
 H         0.9871428804        1.9154472446       -5.1557940721
 H         0.3282731803        1.2801818597       -3.5850891974
 H        -2.1202313459       -0.0166678187       -3.6220429065
 H        -3.1535563780        0.5294161671       -4.9264422513
 H        -3.7113479628        0.5857000728       -3.2413795324
 H        -3.3256743554        4.1279359425       -4.6725000526
 H        -4.2241598362        2.6628321163       -4.8299821028
 H        -4.2450669603        3.4065057862       -3.3182287492
 Na       -2.2032028342        0.8489802711        0.6006826796
