155

 C         7.0173475751       -6.1912974751       -4.5043894467
 C         6.5838598329       -5.9890207321       -5.9705777785
 C         5.1272235566       -5.2317534398       -6.0351367645
 C         5.0909071961       -3.9983955911       -5.0839483151
 C         6.1434921918       -2.9716526587       -5.3640547805
 C         4.7686234062       -4.8548878593       -7.4635231312
 C         3.9833562157       -6.2805832220       -5.6762004045
 O         7.2303298641       -6.2581219570       -6.9383168824
 O         4.1611769904       -3.9302147967       -4.2731802231
 C         6.3793687003       -1.9345705657       -4.3607001015
 C         7.0470739557       -2.3217864493       -3.0027783448
 C         7.1163745459       -1.0189260089       -1.9344108764
 C         5.7361098013       -0.6170882292       -1.5249441163
 C         5.0509214300       -1.6294390035       -0.4429656227
 O         7.5599873758       -3.3898840915       -2.7510397105
 O         5.1597537261        0.3195777125       -1.9871161639
 C         7.9913637096       -1.5171799766       -0.7598568542
 C         7.9428451104        0.2155244512       -2.5344907180
 C         3.5694861764       -1.2836099827       -0.1228982255
 C         3.4015364382       -0.0936901192        0.8928794100
 C         2.2665791270        1.0211634245        0.6838999957
 C         0.9989033913        0.5897179351        1.5760430089
 C         0.9683753268        0.8645621682        3.1209177040
 C         2.8554919990        2.2849856451        1.2279784239
 C         1.6766281087        1.1361393199       -0.8330659809
 O         3.8529420993       -0.1516380276        2.0080072338
 O        -0.0485757775        0.1065284454        1.1004287819
 C         0.1763965220       -0.1401786367        3.9582970930
 C        -0.5443388146        0.4973111848        5.1640303174
 C        -0.8750465875       -0.5027720033        6.3939154387
 C        -1.9072330457       -1.4502244422        5.5961247999
 C        -3.2610676730       -0.8891323894        5.1753839738
 O        -0.7717838421        1.6766569577        5.2940840214
 O        -1.5245369433       -2.5042247458        5.2466760112
 C         0.3839205076       -1.2517857597        6.7217893728
 C        -1.3899015984        0.2471869764        7.5827441157
 C        -4.0582548146       -1.7186176227        4.2169979600
 C        -3.8899142414       -1.4168732160        2.7427707877
 C        -4.4869385205       -2.4111717205        1.6033494751
 C        -4.6969944318       -1.4890652452        0.3207213584
 C        -6.0025419576       -1.6600157965       -0.4874416803
 C        -3.3289146769       -3.5068603480        1.3457092210
 C        -5.7066781299       -3.2138021000        2.1613905842
 O        -3.2088205761       -0.4813208451        2.4719099050
 O        -3.7994937778       -0.8110062420       -0.1792974752
 C        -6.8127197929       -0.3350706303       -0.4730624702
 C        -7.1288319395        0.2182777911        1.0223516471
 C        -7.9032916860        1.5612241553        1.1121009707
 C        -6.7561295580        2.6694773304        1.0435799272
 C        -6.4208002373        3.2773704937        2.3957044998
 O        -6.9763007764       -0.5499860448        1.9488251004
 O        -6.1602870339        2.9470820814        0.0451761015
 C        -8.8320338755        1.7888569802       -0.1528687333
 C        -8.7761073602        1.6083825338        2.3633619535
 C        -5.2693461585        4.3603207320        2.3489141044
 C        -3.9631710441        3.7316161692        1.8884709874
 C        -2.6306027253        4.5031084592        1.9171678740
 C        -1.7730843539        4.1156852857        0.7365812428
 C        -2.2240959086        4.5823511286       -0.6324529496
 C        -2.8718915083        6.0960269365        1.8926610114
 C        -1.8064115569        4.0835262968        3.1805082486
 O        -4.0224830834        2.5819774769        1.5179630488
 O        -0.8847073031        3.3132614421        0.8375923050
 C        -1.5091358475        3.9458294589       -1.7925038935
 C        -2.0087915375        2.5673925012       -2.3252335717
 C        -2.1652091038        2.2805463358       -3.8370907137
 C        -0.8613410354        2.8852270808       -4.6387399494
 C         0.3365108678        1.9640014486       -5.0680365791
 O        -2.1978326259        1.6373605821       -1.5550667311
 O        -0.8238401620        4.1105097756       -4.7083803008
 C        -2.3591317921        0.7750795047       -3.9565123999
 C        -3.3820755201        3.0178510475       -4.5414055560
 H         8.0250686351       -6.6597255096       -4.4460014848
 H         7.0240487476       -5.1495191165       -4.1905576207
 H         6.2135787975       -6.6993867307       -3.9936667235
 H         7.1045489816       -3.4882687606       -5.5253018167
 H         5.8044830383       -2.4958710744       -6.2655534724
 H         4.6309973699       -5.8391940850       -8.0629726066
 H         5.6465621993       -4.3733454188       -7.9791344068
 H         3.8331387639       -4.2382485706       -7.4245657259
 H         4.2966821334       -6.7922441040       -4.8169099653
 H         3.0189678682       -5.9196091227       -5.6737121474
 H         4.0614056822       -7.0359209735       -6.4039842397
 H         7.0946651210       -1.2785383741       -4.8493684845
 H         5.4909274799       -1.2316684618       -4.1732270782
 H         5.2182880090       -2.6191485052       -0.9304906163
 H         5.6178118224       -1.6312905523        0.4498751337
 H         7.6302529217       -2.3833766860       -0.4025661244
 H         8.0792049047       -0.7744492210        0.0782973765
 H         8.9976123263       -1.6570984485       -1.1754958164
 H         8.0371451923        0.9468437944       -1.7437856240
 H         8.9182977997       -0.1249873896       -2.7341601422
 H         7.4773154486        0.6495997046       -3.3754706525
 H         3.1089897205       -2.0937208280        0.4212348220
 H         3.0775645904       -1.0299820848       -1.1230167287
 H         2.0300875802        0.9603311227        3.4436165978
 H         0.4171320657        1.7832564034        3.2774822644
 H         2.2570781925        3.0371961875        1.7144268137
 H         3.5335397346        2.7978201748        0.5869193708
 H         3.5598000489        2.0179816123        2.1618769051
 H         0.9017300242        0.4329820315       -1.0324617424
 H         1.4887187455        2.1587144010       -1.1403153137
 H         2.5063769297        0.7603317986       -1.4381674645
 H        -0.4587453448       -0.6043479942        3.2736019111
 H         0.8405326625       -1.0155843831        4.1550110676
 H        -3.8625470214       -0.7905881710        5.9979020399
 H        -3.1314124800        0.1711823867        4.7069434802
 H         1.2237088617       -0.6466608648        7.0612493250
 H         0.7942207780       -1.7520837986        5.9178493359
 H         0.4649100113       -2.0905273150        7.3412891676
 H        -2.0005027221        1.0262664940        7.2230444753
 H        -1.8313490662       -0.3300109462        8.3444738421
 H        -0.5182056321        0.7830980079        8.0093692641
 H        -5.1491863886       -1.8059358901        4.4496271740
 H        -3.7489848413       -2.7643658134        4.2768519105
 H        -5.8182784314       -1.8755934607       -1.5509120088
 H        -6.5897903465       -2.5159098125       -0.2777884280
 H        -2.4176980034       -3.0079471570        1.0287478303
 H        -3.6973347165       -4.1410758439        0.5412898773
 H        -3.2821960199       -4.0892453864        2.2679625994
 H        -5.8286343550       -4.1577514283        1.6700609835
 H        -5.3945487593       -3.5525546221        3.1255957128
 H        -6.5860373154       -2.6118228749        2.3388505330
 H        -6.3476809055        0.4650335696       -1.0549848199
 H        -7.8438775152       -0.3835269495       -0.9558260199
 H        -7.2665690320        3.6759705909        2.9318254327
 H        -6.0341935958        2.5337239390        3.0415577623
 H        -9.3592355317        2.7213241275       -0.0008605603
 H        -9.6830481071        1.0793969536       -0.2986461503
 H        -8.2090706523        1.8570420139       -0.9618813688
 H        -9.4196876345        0.7289447494        2.4141537793
 H        -8.1076287346        1.4717544861        3.1246839869
 H        -9.1633263568        2.6099267167        2.4873579775
 H        -5.2308511477        4.8724474675        3.3218650232
 H        -5.5346723121        5.1682593795        1.6828661675
 H        -3.2932578815        4.1874625072       -0.5983963942
 H        -2.2384863432        5.6996537294       -0.6237047740
 H        -1.9348099355        6.4892355813        2.2835583404
 H        -3.7227691458        6.2692276417        2.5921699683
 H        -3.1773353177        6.4841801376        0.9302085730
 H        -1.3399357902        3.0980366424        2.9630975651
 H        -0.9281485839        4.7731574105        3.2438677623
 H        -2.3546827479        4.1277009457        4.0528431138
 H        -1.5977814734        4.7408603931       -2.6813297509
 H        -0.4597560613        3.7462578207       -1.5438505590
 H        -0.0365915277        1.4011111719       -5.9174238579
 H         1.2604628452        2.4803981073       -5.1417991027
 H         0.5062501364        1.1277159567       -4.3976765350
 H        -1.3977869283        0.3014334042       -3.5620112486
 H        -2.4537195780        0.5225535280       -5.0200547558
 H        -3.2099603486        0.4469025504       -3.4245321554
 H        -3.6283476252        3.9771650300       -4.1221239582
 H        -3.1565836686        3.2017037058       -5.5462223950
 H        -4.2678264176        2.4265321042       -4.5188850113
 Na       -2.2272575742        0.9647884199        0.8651668435
