155

 C         6.8621635704       -6.3329374967       -4.5135847957
 C         6.3715072361       -5.9252236933       -5.9549278373
 C         5.0162188483       -5.1651813618       -5.9920605971
 C         5.1014079484       -3.9199441032       -5.1074491437
 C         6.3702589101       -3.0560021683       -5.2799922317
 C         4.7178052861       -4.6604561546       -7.5358067998
 C         3.9712023760       -6.2908376381       -5.6023140654
 O         7.1768472397       -5.9183303999       -6.8674798568
 O         4.2574859625       -3.6460371192       -4.3002246630
 C         6.4299632845       -1.8794711109       -4.2908897824
 C         7.0541079099       -2.2443014953       -2.9442830050
 C         7.1617207825       -1.0309155810       -1.7698883269
 C         5.7201641655       -0.6532540395       -1.2682990952
 C         4.9546972026       -1.5359644866       -0.2336179036
 O         7.5104852561       -3.3209605918       -2.7173862168
 O         5.2361614436        0.3452204556       -1.7961713052
 C         7.9323608693       -1.7135374275       -0.5813053175
 C         7.8783664444        0.2440384653       -2.4228678048
 C         3.4505253415       -1.2771212915       -0.0876879982
 C         3.2333461765       -0.0679210831        0.8851563022
 C         2.1428525916        1.0500166654        0.5062532214
 C         0.9317106564        0.6547108631        1.4850918366
 C         1.2503599745        1.0405062142        2.9714761403
 C         2.5711927290        2.4512478027        0.7197956729
 C         1.7528136088        0.9057330863       -0.9805346907
 O         3.8398833872       -0.0236874143        1.9382111355
 O        -0.0387608942        0.1315717067        1.0435460680
 C         0.6190773631       -0.0315336034        3.9905627128
 C        -0.2419091076        0.5827312846        5.0836623110
 C        -0.8454543791       -0.5052342424        6.1987443874
 C        -1.8805337009       -1.3963161941        5.5631644471
 C        -3.2885802410       -0.9114532986        5.3090159674
 O        -0.7557416884        1.6942219196        5.0414116725
 O        -1.6778245649       -2.6346058573        5.3308964429
 C         0.2160105317       -1.3590723960        6.8714719923
 C        -1.6233855618        0.3177955516        7.3817054816
 C        -4.0601603638       -1.9317524689        4.3229609589
 C        -3.7460380267       -1.6554483753        2.8541565939
 C        -4.3599744367       -2.4779248183        1.7682636045
 C        -4.7213304274       -1.4991251136        0.5197011335
 C        -5.9860788181       -1.7933616755       -0.2899516327
 C        -3.2812946098       -3.5197969596        1.1372969173
 C        -5.6157277794       -3.2732793775        2.2236229532
 O        -2.9706611481       -0.6989686523        2.6476963177
 O        -3.8670256777       -0.7480224010        0.0845867864
 C        -6.6125886921       -0.4638625108       -0.5608614757
 C        -7.0940957688        0.2037276739        0.7177650573
 C        -7.9771092969        1.4782581510        0.8958034028
 C        -6.9588933280        2.6686224754        0.9162762092
 C        -6.5679828718        3.3316126242        2.2533351594
 O        -6.8025400393       -0.2931910819        1.7965492389
 O        -6.3242972386        3.0001593801       -0.0845672334
 C        -8.9427572257        1.7378675258       -0.3645185577
 C        -8.9186390440        1.3568184771        2.1889877113
 C        -5.2649512158        4.2529739214        2.3477230250
 C        -3.9847908455        3.6277732906        2.0196534814
 C        -2.7400498665        4.4575794651        2.0518020585
 C        -1.8854145326        3.9468724453        0.7674703717
 C        -2.2961330011        4.4907626085       -0.6131622434
 C        -2.9820284034        5.9801821405        1.9755428205
 C        -1.9274645101        4.2768821611        3.4622461062
 O        -3.8576219937        2.4799100088        1.6054844877
 O        -0.9719137006        3.1770827817        0.9134463602
 C        -1.6120279915        3.9684031860       -1.8996426997
 C        -1.9918456649        2.5018545795       -2.3277472711
 C        -1.8928826112        2.2472269029       -3.8691951969
 C        -0.6540563633        3.0218926719       -4.5132367584
 C         0.3851497563        2.1610209931       -5.3093157307
 O        -2.2348800905        1.6924888729       -1.4752365157
 O        -0.6634265297        4.2335271036       -4.5198413881
 C        -2.0200390837        0.7455511687       -4.2593002114
 C        -3.1452904002        3.0047989778       -4.3713070678
 H         7.9095503066       -6.6047103143       -4.7682222869
 H         6.7832462899       -5.4473516266       -3.8919847612
 H         6.3487868551       -7.2096211409       -4.0924372226
 H         7.2177788899       -3.7062748465       -5.0697849899
 H         6.3168296121       -2.6969140422       -6.3354112647
 H         5.1824176220       -5.3944290007       -8.1049483688
 H         5.2990711885       -3.8432403672       -7.8204973413
 H         3.6895568191       -4.6206692022       -7.7430006731
 H         4.0699164046       -6.5626336680       -4.5296986189
 H         2.9492328727       -5.9871052034       -5.9770490463
 H         4.3293598974       -7.2278198322       -6.0675037146
 H         7.0581323042       -1.0321415298       -4.7093233435
 H         5.4577197650       -1.5081250330       -4.1219241627
 H         5.2341637535       -2.5547034351       -0.3924008387
 H         5.5370942115       -1.2603416536        0.7070075363
 H         7.2241636606       -2.5413334721       -0.1386493982
 H         8.1747894338       -1.0341048005        0.1923741007
 H         8.8777017297       -2.1887158366       -0.9580132565
 H         8.1699451124        1.0213843816       -1.7343654031
 H         8.7488397274       -0.1860854250       -2.9376288428
 H         7.1415917353        0.6994409827       -3.1070854020
 H         3.0482225195       -2.1303386539        0.4807793934
 H         3.0849107421       -1.2489340504       -1.0586632151
 H         2.3147168317        1.1854607032        3.1437183957
 H         0.7269458696        2.0400553880        3.0392481129
 H         1.8450400862        3.1972567877        0.8636002366
 H         3.3011113606        2.7336377896       -0.0168167850
 H         2.9753913622        2.5652448396        1.6823709024
 H         1.5796461632       -0.1506595498       -1.1304683419
 H         0.8318125772        1.4455456033       -1.1656195339
 H         2.4832795214        1.2858282919       -1.6858613318
 H         0.0889249914       -0.8220705358        3.3482950977
 H         1.4678105131       -0.6033092691        4.2837418801
 H        -3.8763606314       -1.2120871464        6.2850119804
 H        -3.3932381338        0.0906483863        5.1027294454
 H         1.2119823555       -1.0463423821        6.6667512198
 H         0.3126266970       -2.4393317453        6.7570448687
 H         0.3077060702       -1.4254643013        7.9663866309
 H        -1.8754831167        1.3309531374        7.0507553265
 H        -2.5111347004       -0.2281826810        7.7911614868
 H        -1.0474600417        0.4214074051        8.2755944576
 H        -5.1284926556       -1.8350868057        4.3907712389
 H        -3.9450837410       -2.9893731086        4.6215577883
 H        -5.8336131071       -2.2263219349       -1.2618205535
 H        -6.7668487256       -2.5135243142        0.0726446283
 H        -2.4897273206       -2.9381708933        0.6974039692
 H        -3.7253711634       -4.0902626329        0.3422000079
 H        -3.0133375422       -4.1756800161        1.9341404651
 H        -5.9761183366       -3.8933140608        1.3855630259
 H        -5.3786059326       -4.0942304073        2.9017348971
 H        -6.2873013561       -2.6379020298        2.7304940594
 H        -5.9317237741        0.3072878033       -0.9298049706
 H        -7.4056060542       -0.5002069358       -1.2639006939
 H        -7.3334788680        4.1105116357        2.5021173419
 H        -6.6136942859        2.6067472774        3.1420941144
 H        -9.8055214710        2.3735597098       -0.2020405602
 H        -9.3679188545        0.8016304952       -0.6517934757
 H        -8.2491820653        1.9721541828       -1.2800827670
 H        -9.4765124573        0.4670017869        2.0408505797
 H        -8.2126174567        1.2158431377        3.1065807242
 H        -9.4803722596        2.2598393191        2.3645057007
 H        -5.3046064731        4.8181133697        3.2783726621
 H        -5.5020030393        5.0994422855        1.6679511219
 H        -3.3659991919        4.4416036565       -0.6284272047
 H        -2.0470459961        5.5473440413       -0.4990851407
 H        -2.0071476014        6.3805329143        1.6590482440
 H        -3.3720489221        6.3749756994        2.8736561381
 H        -3.7398013007        6.1961418127        1.2218424877
 H        -2.2991674626        3.4170292208        4.0319067574
 H        -0.9496270523        4.0698521062        3.2729177408
 H        -1.9626221799        5.2620593801        4.0105378730
 H        -1.7947720881        4.6791910583       -2.6219365737
 H        -0.5288832414        3.9392888763       -1.7338770938
 H        -0.0372635050        1.7541742312       -6.2287034987
 H         1.4192979966        2.5363380015       -5.2693193438
 H         0.4566976326        1.2354562214       -4.6801419168
 H        -1.1296107281        0.2863866222       -4.0190518507
 H        -2.2703054130        0.6416950462       -5.2989449193
 H        -2.8780220793        0.2815119471       -3.7206816765
 H        -2.9502633157        4.0805166969       -4.3844456852
 H        -3.4107198265        2.7229036822       -5.4008796379
 H        -4.0242394545        2.8571985798       -3.7169900551
 Na       -2.3374232698        0.9199775422        0.7507325362
