155

 C         5.6886053618       -6.7599210540       -5.3005759954
 C         6.0048568185       -5.2330587764       -5.6333437318
 C         4.8776780768       -4.2471852854       -5.6311314134
 C         5.3831402863       -3.0986235607       -4.6201514715
 C         6.6543906399       -2.4143318168       -4.7936098752
 C         4.7805388272       -3.5447876251       -7.0140841812
 C         3.5089505741       -4.7119564276       -5.2294917742
 O         7.1405962623       -4.8478002732       -5.8846853018
 O         4.5438016926       -2.7943011860       -3.7924060419
 C         6.8821409302       -1.3753101955       -3.6868379714
 C         7.2687182361       -2.1414053666       -2.4323816419
 C         7.2272169649       -1.3042594848       -1.0409832264
 C         5.6964577908       -0.9134603411       -0.6461024392
 C         5.1244980097       -1.5848116506        0.6666692034
 O         7.4398579088       -3.3421454129       -2.4539439102
 O         4.9505339808       -0.2549730888       -1.3716178079
 C         7.8334005354       -2.2774478950       -0.0554621204
 C         7.8524130266        0.1388946234       -1.1636542548
 C         3.5981280120       -1.3752091110        0.9888842056
 C         3.2195157651        0.0968527377        0.8906367001
 C         1.9863576395        0.7164180932        0.0297049152
 C         0.7506738191        0.4281205013        0.9205693622
 C         0.7855057313        0.9230515757        2.2841059706
 C         2.2874235203        2.2784608450       -0.1653901184
 C         1.8997491593        0.0217883430       -1.3833437227
 O         3.6483718522        0.9143021458        1.6981619237
 O        -0.1813385269       -0.2024534021        0.4135832250
 C         0.2588945153       -0.1149953975        3.2905340227
 C        -0.0168395621        0.5896326906        4.6748826841
 C        -0.5123977024       -0.3384329075        5.8265849845
 C        -1.5578690578       -1.4089209604        5.2661816373
 C        -3.1286936089       -1.2404458041        5.2666538158
 O         0.1864724524        1.7811463222        4.7394008345
 O        -1.1354456828       -2.4690564114        4.7434051461
 C         0.7373129647       -1.0431354931        6.5214892730
 C        -1.1234633340        0.5061714629        6.8976977576
 C        -3.7422259740       -2.0946201368        4.1753033892
 C        -3.4440439292       -1.5811749604        2.7830596502
 C        -3.5627742507       -2.4437733681        1.4417907778
 C        -4.5804240433       -1.6407694179        0.5491231791
 C        -5.9972814076       -2.1693707033        0.4883966906
 C        -2.1880249151       -2.4780726968        0.6672970876
 C        -3.8921405998       -3.9354825798        1.7118990891
 O        -3.0133916374       -0.4477277036        2.5386854387
 O        -4.2042917532       -0.6808392862       -0.0612161042
 C        -7.0485809932       -1.3460480795       -0.3707742618
 C        -7.7361411457       -0.2789804165        0.4348495773
 C        -8.1086604869        1.0665514174       -0.1159278938
 C        -7.3348361743        2.2652993082        0.6084667074
 C        -7.2358747540        2.2729684154        2.1090511657
 O        -7.9088932802       -0.5405772202        1.6459628323
 O        -6.8757874262        3.0854757953       -0.1241898460
 C        -7.8270577039        1.1858442361       -1.6412234260
 C        -9.6187562324        1.2635076647        0.2543825617
 C        -6.1181550935        3.2950396274        2.5898220171
 C        -4.7466896887        3.1661514494        1.8408855078
 C        -3.6648708556        4.3092229537        1.9875688527
 C        -2.5536297077        3.8947737929        0.9182698687
 C        -2.7902469729        4.3396646539       -0.5430650013
 C        -4.2338220045        5.6692818611        1.7285160741
 C        -3.1377843402        4.2379320618        3.3710546687
 O        -4.5700794529        2.2337867274        1.0379886927
 O        -1.5350944112        3.2830044888        1.2633375372
 C        -1.4761188092        4.0387478988       -1.4550510278
 C        -1.5555417462        2.6744192514       -2.0299671726
 C        -1.2925136570        2.4592250502       -3.5529369764
 C         0.2250974572        2.9393134559       -3.9521587473
 C         0.9926783785        2.1307746661       -5.0495474391
 O        -1.7081455226        1.6313309845       -1.3901095637
 O         0.6597183993        3.8870722399       -3.2678139676
 C        -1.5302482633        0.9797523773       -3.9111114886
 C        -2.3807883231        3.2581079860       -4.3431202357
 H         6.6744894984       -7.3359575835       -5.0577528517
 H         5.0635834959       -6.9454241000       -4.4460718430
 H         5.0304812490       -7.1109615894       -6.0760524583
 H         7.3920196595       -3.2414502846       -4.8463899975
 H         6.7920604177       -1.9761239049       -5.7847297176
 H         4.4969241636       -4.1534356977       -7.9127724026
 H         5.8041939443       -3.2222602920       -7.3738207075
 H         4.1422613886       -2.6277954271       -6.8913195447
 H         3.3418698418       -4.6533565547       -4.2024278277
 H         2.8677750147       -4.0827311272       -5.7978695287
 H         3.2911840939       -5.6943612348       -5.4891123265
 H         7.7391241273       -0.8272762157       -3.9310717474
 H         6.0493805758       -0.6306037224       -3.4832777404
 H         5.1176235911       -2.7023851384        0.4260222085
 H         5.7303748774       -1.3938115578        1.5041967583
 H         7.4272417079       -3.2448139177       -0.1262665250
 H         7.6579321187       -2.0334049876        0.9754330348
 H         8.9850135701       -2.4288290763       -0.2069075584
 H         7.6789343347        0.6656295119       -0.2287262100
 H         8.9284983843        0.1318159998       -1.4066133174
 H         7.2647352187        0.6335925595       -1.9503853905
 H         3.5144336020       -1.5122300020        2.0858663575
 H         2.9997210751       -2.1033523637        0.4961337434
 H         1.7796947796        1.2736528672        2.6430832617
 H         0.2884070807        1.9003503795        2.3310307092
 H         1.4686316181        2.9484912783       -0.1451740385
 H         2.6859079117        2.3986677929       -1.1348666072
 H         3.0921159797        2.6368074023        0.6047542262
 H         1.5444194947       -1.0379872307       -1.4108804560
 H         1.1589857117        0.6303530831       -1.9096636794
 H         2.8232213522        0.1241923915       -1.9572571052
 H        -0.7299515968       -0.4642698056        2.8786341287
 H         0.9532281298       -0.9580772899        3.2448062968
 H        -3.4582523023       -1.5621685959        6.2912917371
 H        -3.4961154113       -0.2717793012        5.1774635514
 H         1.3289409956       -0.3335426654        7.0662318558
 H         1.5709875236       -1.5391895811        5.9762401091
 H         0.5942075251       -1.7774466000        7.3638047120
 H        -2.0926689100        0.9522356479        6.6208020078
 H        -1.1699550759       -0.0187193398        7.8560598543
 H        -0.4185520313        1.2984057233        7.0176984772
 H        -4.8423931394       -2.0944391599        4.2147269908
 H        -3.3424020638       -3.1276498438        4.1732720592
 H        -5.9743110228       -3.1861890394        0.0234143831
 H        -6.4206611612       -2.2014028492        1.4827182315
 H        -1.9060320277       -1.4803210020        0.2934793823
 H        -2.1467583043       -3.2438711977       -0.1254076701
 H        -1.4813052681       -2.8326488780        1.4303538166
 H        -4.0900579605       -4.4820403304        0.8178422905
 H        -3.0479301948       -4.4825194216        2.1833984506
 H        -4.6608272493       -3.9526604304        2.4464116694
 H        -6.4285950696       -1.0771499955       -1.2443193887
 H        -7.7597534933       -2.0549033307       -0.7549283949
 H        -8.2684842132        2.5593906478        2.5654456242
 H        -6.8711451495        1.3402035014        2.5076977897
 H        -8.0836136520        2.0960162373       -2.1045471874
 H        -8.3327383118        0.5551929056       -2.2792347923
 H        -6.7427834610        0.9279827554       -1.7555286806
 H       -10.1482380218        0.6566832857       -0.4272967837
 H        -9.9540292674        1.2161606845        1.3054431441
 H        -9.7260338643        2.2789992586       -0.0089259854
 H        -5.9644605385        3.0384289810        3.6413931457
 H        -6.5232315148        4.3199322040        2.6398720525
 H        -3.6578169421        3.8868591416       -1.0356950720
 H        -2.8956284552        5.4193686681       -0.5498490401
 H        -3.4810266638        6.4147538570        1.6167797823
 H        -4.8886273188        6.0078656451        2.4970295795
 H        -4.9222829101        5.8242990724        0.8749552674
 H        -2.1816588491        4.8004574817        3.4659134765
 H        -3.8180946421        4.6788916416        4.0260855169
 H        -2.8795956192        3.2300318857        3.6837626512
 H        -1.5572045500        4.6920378802       -2.2222068200
 H        -0.5710924108        4.2349308660       -0.8284791669
 H         0.3460095702        2.1162764414       -5.9309495777
 H         1.8638790119        2.6855939491       -5.3836407475
 H         1.1918430540        1.1220695718       -4.7329619948
 H        -0.7582482774        0.2966549390       -3.7047832628
 H        -1.6828119547        0.8935574935       -5.0140652855
 H        -2.5076233805        0.7063876406       -3.4170654372
 H        -2.2893474988        4.2776907527       -4.0018399882
 H        -2.1407128236        3.2438156833       -5.4128361344
 H        -3.3906694879        2.9465919629       -4.1979979958
 Na       -2.3704546836        0.9548000039        0.8294848050
