155

 C         3.7236648448       -3.7582479414       -2.9533945435
 C         4.9192422098       -3.3858272975       -3.8837746316
 C         4.9566156149       -1.9344793183       -4.5305313370
 C         5.7708779238       -1.2257017794       -3.4639095576
 C         7.2339599596       -1.5136506810       -3.4801740933
 C         5.5896991418       -1.9240441641       -5.9155664021
 C         3.5217514210       -1.3620065696       -4.6545171398
 O         5.6429360417       -4.2014202093       -4.3850678559
 O         5.2556923224       -0.4501254419       -2.6786208095
 C         7.8639776103       -1.1950127142       -2.0709779918
 C         7.3926210818       -2.3121492818       -1.1062705803
 C         7.3466434947       -2.0561321759        0.4523408899
 C         6.1311528189       -1.0976686091        0.4589606411
 C         4.7326331793       -1.7046757546        0.4298970262
 O         6.8933384236       -3.3233083930       -1.5643562969
 O         6.2807366438        0.1229046144        0.3246716499
 C         7.0940560279       -3.4489273570        1.0693493921
 C         8.5604179883       -1.3990218801        1.0823461325
 C         3.7412015368       -0.6480811224       -0.1011775055
 C         3.1556492378        0.1232491256        1.0917102900
 C         2.2603262077        1.5657657379        0.9375545448
 C         0.8475347657        1.2349358172        1.4332014471
 C         0.5620070122        1.6583642045        2.8753215115
 C         3.2726316413        2.6951633947        1.5901478224
 C         2.0629491660        1.7553385570       -0.6600805290
 O         3.2470333529       -0.3755571959        2.2041955331
 O         0.0064629848        0.7376309673        0.7283592237
 C         0.3395665974        0.3512203398        3.6932716286
 C        -0.7690262033        0.5697187397        4.7361915683
 C        -1.2770561320       -0.7093348519        5.5442110776
 C        -1.8215151078       -1.6980309662        4.5623227049
 C        -3.3763060668       -1.6974420663        4.3741624312
 O        -1.2666750956        1.6467753879        4.9355631105
 O        -1.2381245712       -2.3944779192        3.8339753974
 C        -0.1812094646       -1.4079725736        6.3544810143
 C        -2.3474537806       -0.2155541837        6.6121720189
 C        -3.7018050758       -2.3508876022        3.0486972702
 C        -2.8855570787       -1.8212882030        1.8629990987
 C        -2.4286424608       -2.7508435310        0.6983045980
 C        -3.5059554231       -2.3619830002       -0.4147857117
 C        -4.6213341650       -3.3228441627       -0.5434596608
 C        -1.0215027062       -2.4011655259        0.1586071791
 C        -2.3239254884       -4.3036764745        1.0605536605
 O        -2.7649254481       -0.5975886145        1.7861107203
 O        -3.4330315203       -1.2954462629       -0.9995917416
 C        -5.9263343447       -2.7871154721       -0.9783072715
 C        -6.3156447234       -1.4619064474       -0.3469682786
 C        -7.3655642386       -0.4728871369       -1.2306287883
 C        -7.0861261668        0.9705556756       -0.7217392008
 C        -7.2500986869        1.3284178624        0.7883948374
 O        -5.9414076037       -1.1706572605        0.7512572537
 O        -6.7372962717        1.8355141066       -1.4718326998
 C        -7.2071362495       -0.6790791401       -2.7493346709
 C        -8.7560363934       -0.9633246723       -0.6676347547
 C        -6.5593657559        2.5865634604        1.1650152010
 C        -4.9525221248        2.3450770452        1.2746937283
 C        -3.9621367980        3.4132690789        1.7439765327
 C        -2.7230222561        3.4890410475        0.7947034208
 C        -2.9650353157        4.1898421671       -0.6176914877
 C        -4.6487323418        4.8376512009        1.8001703693
 C        -3.4282282373        3.1351443990        3.1966002831
 O        -4.5310634271        1.2634703525        0.9427648795
 O        -1.5738170699        3.3132981271        1.0637937773
 C        -1.8248060812        3.9673190102       -1.6386255021
 C        -2.1856876977        2.8022367834       -2.4856926482
 C        -2.3179972814        3.0842230397       -4.0314666889
 C        -0.8768506667        3.5683963711       -4.5541309177
 C         0.2048808993        2.4928808953       -4.6739120113
 O        -2.5725415454        1.7234252001       -2.0625035673
 O        -0.6018371152        4.7035184141       -4.7478992232
 C        -2.8149588442        1.8386889153       -4.7579004292
 C        -3.4067434097        4.2869009205       -4.2021477076
 H         2.8477634442       -4.2045462157       -3.6033172115
 H         4.0783835702       -4.3775007606       -2.1047620533
 H         3.2187479382       -2.9329599262       -2.5581685596
 H         7.4946188959       -2.5660636094       -3.6537356532
 H         7.7510843426       -1.0381560841       -4.3041698111
 H         4.9103875157       -2.3475037057       -6.6574671773
 H         6.5558830062       -2.3670855855       -5.9717414325
 H         5.6351527916       -0.9215707116       -6.1298796084
 H         3.0058210550       -1.2053682640       -3.6935645691
 H         3.7127105859       -0.3961614169       -5.1130704864
 H         2.8854203709       -2.0225876007       -5.2827011982
 H         8.9304449964       -1.2004408427       -2.0703365070
 H         7.6535498157       -0.1661157410       -1.6917043191
 H         4.7301033468       -2.5161020926       -0.3672278361
 H         4.4501525446       -2.1490083408        1.3664416852
 H         6.1925006595       -3.9274055806        0.5833787596
 H         6.9089375375       -3.3031605286        2.0909057003
 H         7.8767224524       -4.0925565583        0.9460333493
 H         8.3592241454       -1.2314343293        2.1256846628
 H         9.4903844225       -1.9563741239        1.0280401289
 H         8.7229361449       -0.4339923513        0.6235025765
 H         2.9133812467       -1.1377016233       -0.7314370394
 H         4.2853906270       -0.0467306967       -0.7533055397
 H         1.4690560562        2.1000810895        3.2712622069
 H        -0.3488229660        2.2952592514        2.8754754015
 H         3.6371124942        3.2588301635        0.7594014893
 H         4.0622757269        2.1691179697        2.1540190671
 H         2.8089155755        3.3729633727        2.3647448050
 H         1.6984484735        0.8145825860       -1.0999198345
 H         1.3371309907        2.5636468718       -0.7823064141
 H         2.9214183587        2.0546578944       -1.2983010746
 H         0.1520264221       -0.5256284773        2.9808767476
 H         1.3029878183        0.0273249714        4.1552518499
 H        -3.8501951531       -2.2818133131        5.2220637434
 H        -3.7499545757       -0.6948900560        4.4292809018
 H        -0.1117396148       -0.9030753156        7.3703681381
 H         0.8482755997       -1.6269274339        5.9189008405
 H        -0.5443731357       -2.4190528874        6.6701355882
 H        -3.1241572877        0.2456216611        6.0713738023
 H        -2.6344729825       -0.9391568592        7.3407650196
 H        -1.8526872771        0.5755076171        7.2013261727
 H        -4.7821372782       -2.1590466213        2.8165746567
 H        -3.4735480821       -3.4155559308        3.1013247012
 H        -4.2321616774       -4.0650840694       -1.3064293955
 H        -4.7504866017       -3.7680098940        0.4104634641
 H        -1.0600193557       -1.3948618598       -0.2180080982
 H        -0.6829992106       -2.9960242138       -0.7059346025
 H        -0.2253336541       -2.5129402924        0.9349178233
 H        -1.6249623163       -4.8587567648        0.4329158829
 H        -2.0157686748       -4.3591659985        2.0628468087
 H        -3.3207251478       -4.7675101044        1.0889520612
 H        -6.0812627960       -2.7462093408       -2.0516793458
 H        -6.7253005250       -3.3709043697       -0.6251421334
 H        -8.3609084163        1.5346491333        0.8810421309
 H        -6.8814470854        0.4565180857        1.3214842689
 H        -7.7136437282        0.2255129791       -3.0870103684
 H        -8.0562413677       -1.3455354589       -3.0252001479
 H        -6.1993651332       -0.7874353150       -3.2115557232
 H        -8.8994493406       -2.0056640986       -0.9064251501
 H        -8.6741707898       -0.9346969393        0.4779692742
 H        -9.5386159711       -0.4217670188       -1.1000395793
 H        -6.8667450229        2.7383919863        2.2462954432
 H        -6.8550565278        3.5352933384        0.6343803998
 H        -3.9067064826        3.7654418326       -0.9433010339
 H        -3.0924003299        5.2782015509       -0.4354231526
 H        -3.8795188236        5.4825340575        2.2043372212
 H        -5.4744482188        4.6932115083        2.5561065985
 H        -4.9731607122        5.1429795535        0.7821540763
 H        -2.3479282210        3.3774276568        3.2794664618
 H        -4.1253662399        3.7232128979        3.7926938132
 H        -3.4525929401        2.1108406859        3.4607786587
 H        -1.5844296950        4.8874470272       -2.2001870609
 H        -0.8872989002        3.6389759382       -1.0796435429
 H        -0.1727030274        1.6613076989       -5.2140450822
 H         1.1127996793        2.9105169143       -5.1326556724
 H         0.4723135997        2.1355392877       -3.6503439810
 H        -2.1118575638        0.9731563965       -4.5532611886
 H        -2.8108936085        2.0151282232       -5.8027875454
 H        -3.8309656898        1.5857625464       -4.4085802072
 H        -3.9968860469        4.3688033614       -3.3360644929
 H        -2.9030504850        5.2453051007       -4.3396848630
 H        -4.0896879161        4.0580027289       -4.9715416564
 Na       -2.3256967634        0.7596341478        0.0631222785
