155

 C         3.4188928775       -3.6537510892       -3.3344118363
 C         4.7545563832       -3.3133294539       -4.0452934537
 C         4.9726042977       -1.8481418191       -4.5035485476
 C         5.8842088846       -1.0848295888       -3.3415670314
 C         7.3492178159       -1.2516586704       -3.3465953062
 C         5.7981223419       -2.0007618310       -5.7909284898
 C         3.6087528381       -0.9799008273       -4.6332460173
 O         5.5171828379       -4.2822344984       -4.3596855617
 O         5.4027830544       -0.4175020865       -2.4488718289
 C         8.0040971762       -1.2653402591       -1.9831287421
 C         7.3472262821       -2.3506108256       -1.1717910031
 C         7.2986278828       -2.0383636131        0.4049135517
 C         6.1836241882       -1.0164249672        0.8474837849
 C         4.6924677619       -1.4775581095        0.6393486615
 O         6.8704252170       -3.3673457300       -1.5583190854
 O         6.4101200329       -0.0233332616        1.5192923917
 C         6.9990374795       -3.3958971969        1.1731725565
 C         8.6635794577       -1.4617528445        0.8268729097
 C         3.7648615263       -0.3807493426        0.1492623457
 C         3.1060886981        0.3443591966        1.2564892732
 C         2.4051935981        1.6609766831        0.9400416841
 C         0.9956365113        1.3540412930        1.2796770507
 C         0.2002111205        1.7888745808        2.6871101341
 C         3.0122340766        2.7623793799        1.8346243276
 C         2.4201673664        2.1411970896       -0.5356799670
 O         3.0515662633       -0.1181782324        2.4534054696
 O         0.3141493754        0.8384989865        0.4297885437
 C        -0.1647953666        0.4206616935        3.4831217452
 C        -1.1461554060        0.5574842608        4.6531159244
 C        -1.5079018103       -0.7118147849        5.4908563933
 C        -2.0978124922       -1.7436202775        4.4934768409
 C        -3.6440963628       -1.9574007034        4.2652303709
 O        -1.6492257017        1.6554803111        4.8268150630
 O        -1.4900655604       -2.4998530755        3.8376126298
 C        -0.1595779816       -1.2258281615        6.1003677906
 C        -2.5868872311       -0.3778032645        6.5969782482
 C        -3.8075261306       -2.7122215042        2.9221127832
 C        -2.8477050300       -2.1636371714        1.8822799095
 C        -2.2401822507       -3.0077562169        0.7040376691
 C        -3.3412650329       -2.6763847731       -0.3403593243
 C        -4.5106273549       -3.5426445568       -0.6715347620
 C        -0.8513211655       -2.5054199290        0.3142699544
 C        -2.2699740993       -4.4830240090        0.9168924528
 O        -2.6989434006       -0.9400125815        1.9126934443
 O        -3.1409334123       -1.6172000788       -0.9278858897
 C        -5.5839393033       -2.8193707130       -1.3934284982
 C        -6.1250630804       -1.6890852129       -0.5488803244
 C        -7.0768445105       -0.6806288585       -1.0834864003
 C        -6.7188593159        0.9054735468       -0.6756718759
 C        -7.1168785163        1.3246125270        0.7631638383
 O        -5.7438129710       -1.6603734626        0.6307178137
 O        -6.2947020760        1.6298065150       -1.5420519608
 C        -7.2109425029       -0.7594437696       -2.6423902243
 C        -8.5756139340       -0.8662954577       -0.5529352116
 C        -6.5329321005        2.7032334186        0.9283047864
 C        -4.9238556800        2.5656896071        1.1438906036
 C        -4.0904184625        3.7461639394        1.7154078965
 C        -2.7111712307        3.5910192820        0.7766372294
 C        -2.5444068257        4.5658749969       -0.5534641510
 C        -4.8449137144        5.1853532353        1.7483670695
 C        -3.7786434274        3.3510358944        3.1523108930
 O        -4.4292677445        1.5503647131        0.6446993613
 O        -1.9116530955        2.7446483619        0.9799072374
 C        -1.5965980742        4.0600802719       -1.6279203249
 C        -2.0222179815        2.8168775928       -2.4065030115
 C        -2.5672104538        3.1652886568       -3.9429516841
 C        -1.2386451382        3.7571729330       -4.6647806907
 C        -0.0944596086        2.8474470852       -4.9754893816
 O        -1.7977564236        1.6429913627       -2.1068698613
 O        -1.2898645750        4.9121529707       -4.9902940873
 C        -2.9925625369        1.8481058061       -4.6794403787
 C        -3.7817178557        4.1579328155       -3.9013340198
 H         2.4987863434       -3.0959867586       -3.7251711714
 H         3.2678505449       -4.7560915510       -3.3648667840
 H         3.5495792313       -3.3933018984       -2.2923137522
 H         7.6796325557       -2.1531122833       -3.9187069165
 H         7.7359854146       -0.3536292825       -3.8464374377
 H         5.1791301381       -2.5010873428       -6.4765848329
 H         6.6038760261       -2.6415685702       -5.6551248063
 H         6.1103815773       -1.1024561402       -6.1611215677
 H         3.2931605991       -0.8961328450       -3.6081517062
 H         3.7535001899        0.0378689319       -4.8502479423
 H         2.8629934469       -1.4777865891       -5.2580731991
 H         9.0547532497       -1.4331739465       -2.0762810821
 H         7.8885750873       -0.2408674674       -1.5010293539
 H         4.6061868316       -2.3081132008       -0.1442713731
 H         4.3079856740       -1.8768292514        1.5416416238
 H         6.4363959938       -3.9749187800        0.4885918797
 H         6.5989835962       -3.3358452393        2.0845107948
 H         7.9254099469       -3.9762059514        1.2804106788
 H         8.8379241646       -1.4511812879        1.9303232943
 H         9.4430404743       -2.1768806239        0.5069741675
 H         8.7858640037       -0.4284852124        0.4859367669
 H         3.0595797994       -0.7130005226       -0.6792583162
 H         4.3702833830        0.3502474594       -0.2938191827
 H         0.7780274230        2.4118035650        3.3366151792
 H        -0.6641435271        2.2283004236        2.2475478313
 H         3.4060123197        3.5133957254        1.2387680197
 H         3.8960797944        2.4209389353        2.4854585961
 H         2.3585563550        3.3167112228        2.5841992769
 H         2.0187165632        1.3729618233       -1.2023739316
 H         1.9459916912        3.1030794161       -0.7316700228
 H         3.4597680417        2.3720721224       -0.8247213153
 H        -0.5597642798       -0.2000177880        2.6318124523
 H         0.7018903155       -0.1753320737        3.7544741399
 H        -4.0726497173       -2.6533381070        4.9807094034
 H        -4.2324329228       -1.0080926088        4.2501309283
 H         0.4290474952       -0.3163762079        6.2999810272
 H         0.4193747941       -1.8955410153        5.4714182786
 H        -0.3978922125       -1.9147720017        6.9480492582
 H        -3.3369239734        0.2999820281        6.1624398150
 H        -3.0357155370       -1.3395651419        6.9139202536
 H        -2.1483510625        0.2221208977        7.4709262514
 H        -4.8351997616       -2.4852877264        2.5575703736
 H        -3.4862136262       -3.7398181354        3.0300395923
 H        -4.2976879697       -4.4254225384       -1.3735713903
 H        -4.8739139144       -4.0612500270        0.1698937561
 H        -0.7209305257       -1.4852371440       -0.0178935566
 H        -0.6338227786       -3.0673079195       -0.6114057027
 H        -0.0584009878       -2.8120445587        1.0382533030
 H        -1.9857339282       -4.9504277350        0.0165097119
 H        -1.5593986217       -4.8295123965        1.6480471797
 H        -3.2699611833       -4.7714539455        1.2008097613
 H        -5.3518981442       -2.5216693464       -2.4389039342
 H        -6.3102355378       -3.5333653947       -1.6187101522
 H        -8.2542410383        1.3711454098        0.7742074931
 H        -6.7544011957        0.4812322569        1.3770149672
 H        -7.9709066805       -0.1737453947       -3.0936640150
 H        -7.2826202847       -1.8398311842       -2.8785847727
 H        -6.2866492849       -0.2303530313       -3.0226632164
 H        -8.7977863858       -1.8782249522       -0.9335426473
 H        -8.4779947412       -0.8964178765        0.5451819679
 H        -9.2947322666       -0.1285803938       -0.8503511873
 H        -7.0735855221        3.2311757423        1.7293878756
 H        -6.5741918352        3.3083927746        0.0251566948
 H        -3.5559484465        4.7591068776       -0.9321913627
 H        -2.2992644045        5.5619098791       -0.1198084647
 H        -4.1443681807        5.8198581951        2.1491845358
 H        -5.5967864063        5.1072515621        2.5499165722
 H        -5.1193063474        5.5800082249        0.7827714167
 H        -3.9134694396        4.2237686506        3.8329245064
 H        -4.5544149217        2.6633045620        3.5143836515
 H        -2.8493102845        2.9815443734        3.2598586376
 H        -1.3282193289        4.8750775149       -2.3151072196
 H        -0.6490681481        3.8917666752       -1.1755114651
 H        -0.3740428923        2.2874138064       -5.8331027808
 H         0.7208408633        3.4807757175       -5.3527545628
 H         0.2816278513        2.2736039591       -4.1383376778
 H        -2.1898265412        1.0812747905       -4.7129651238
 H        -3.3086218944        2.1625809374       -5.6677078597
 H        -3.7629183537        1.2768622436       -4.1883391975
 H        -4.7417602545        3.7223752185       -3.8677497383
 H        -3.6636884508        4.7107215021       -2.9149968250
 H        -3.7702520431        4.9144582792       -4.6905073619
 Na       -2.1106520019        0.3262089518        0.1616213078
