155

 C        -4.0203190564       -9.1856795518       -1.7963165935
 C        -3.9621975054       -8.1244590110       -0.5936526439
 C        -5.1768639978       -7.2467757297       -0.3697842877
 C        -4.6035030354       -5.8506341260        0.3219433707
 C        -5.2109320075       -5.2647228337        1.6627689612
 C        -5.9601045518       -6.9275157358       -1.7064841445
 C        -6.2294311717       -7.8909195852        0.6047605318
 O        -3.0840010703       -8.0497921732        0.2198749648
 O        -3.8213878328       -5.2215173960       -0.3342000801
 C        -4.0149992442       -4.5834901736        2.4912233702
 C        -4.3993754069       -3.0769523186        3.0038740280
 C        -3.2478664353       -2.0351380463        3.3424276740
 C        -2.5951113055       -1.6690384896        2.0039936862
 C        -3.4967731480       -1.4345445296        0.7231532297
 O        -5.5061225591       -2.9375755062        3.3264900833
 O        -1.4007348106       -1.6933919608        1.9234773844
 C        -3.8982765336       -0.7204447845        3.8744266853
 C        -2.3037951923       -2.5891165748        4.4018120882
 C        -3.0929807912       -2.3314878659       -0.4469238759
 C        -2.1347084231       -1.5545824244       -1.3368231499
 C        -0.7833371765       -2.2627448139       -1.9214799813
 C         0.1483101409       -1.4319241683       -2.8724997837
 C         1.0714050706       -2.0883398954       -3.8660330365
 C         0.3251543299       -2.3330864215       -0.7137433976
 C        -1.1781811794       -3.7640106934       -2.3164666112
 O        -2.3612035152       -0.4133236856       -1.5680998535
 O         0.3160436839       -0.2194272198       -2.7526146599
 C         1.2058988267       -1.3495445540       -5.2599958611
 C        -0.1859376971       -1.1239604350       -5.9291578022
 C        -0.2831900998       -0.3943482110       -7.3269131408
 C        -1.1350872746        0.9189456103       -7.0718431780
 C        -2.6847026349        0.7847938312       -7.0627334484
 O        -1.2030388248       -1.5707157989       -5.4706281477
 O        -0.5472617509        1.9912818125       -6.8223187833
 C         0.9707595498       -0.0173050252       -8.0402091454
 C        -0.9623198643       -1.3391105642       -8.3642277783
 C        -3.3854021271        2.0921709069       -6.5678882335
 C        -2.8119250949        2.4676956476       -5.1674172915
 C        -3.0670644739        3.9808360895       -4.7231253641
 C        -3.0021692403        4.1162762908       -3.1087185765
 C        -2.5819502567        5.4171495304       -2.3903501349
 C        -2.0237995963        4.9263046095       -5.4126947699
 C        -4.4074225007        4.5578998753       -5.1055956776
 O        -2.2994923100        1.6704063392       -4.4182192971
 O        -3.3096465372        3.1845204432       -2.3559694131
 C        -1.5631592316        5.2228177035       -1.1617682876
 C        -0.3350801951        4.5992255090       -1.8009436557
 C         0.9851213966        4.3453001904       -0.8514965202
 C         0.3829449463        3.3961600774        0.1483750378
 C         0.0143473396        3.6295077796        1.7084982467
 O        -0.3817320595        4.1947489787       -2.9332544088
 O         0.1077869349        2.2940676805       -0.2699675361
 C         2.0775402986        3.5892559715       -1.6096377295
 C         1.3001318970        5.7495953839       -0.2274023573
 C         1.2392353041        3.9846849607        2.5945259996
 C         2.1967708589        2.7937218820        2.9134021728
 C         3.7894051948        3.0306231772        3.3169890277
 C         3.8397720663        2.5445801571        4.8449424169
 C         3.8110114463        1.1238117645        5.2098902409
 C         4.6814221470        2.0630210285        2.3945023098
 C         4.1652375605        4.5120723555        3.2504851797
 O         1.6783425997        1.7251180636        2.8408463168
 O         3.9480888677        3.4079240735        5.7094121245
 C         4.5453586543        0.8565347349        6.5896018380
 C         6.0251964770        0.9234905936        6.2808905131
 C         7.0603346818        0.1389890257        7.0675267558
 C         7.4849028901        1.0637238236        8.3271686317
 C         7.6042568530        2.5941127963        8.0090925517
 O         6.4122316708        1.5428630626        5.2954404785
 O         7.8493555061        0.6819263607        9.3926311910
 C         6.6236046699       -1.3496380921        7.4573194511
 C         8.3762794389       -0.1250318302        6.2483967734
 H        -3.8085987283       -8.7498070099       -2.7832586511
 H        -3.3720146451       -9.9932569238       -1.4930493010
 H        -5.0291872467       -9.6163359307       -1.9090503688
 H        -5.8374500965       -4.4088935604        1.2934971739
 H        -5.7784525577       -6.0264889111        2.2414934187
 H        -6.8125912613       -6.3273822159       -1.4517054197
 H        -6.3736594978       -7.7860718349       -2.2557018736
 H        -5.2292768711       -6.4390227806       -2.3259247907
 H        -5.8508022440       -8.3312295832        1.5351584659
 H        -7.0145934061       -7.1015227820        0.8518477204
 H        -6.8019541639       -8.6354013962        0.0636836749
 H        -4.0422148982       -5.1722245355        3.4317268804
 H        -3.0465088195       -4.6170878819        1.8860704691
 H        -4.5141880437       -1.6374089058        1.1377839320
 H        -3.5176199060       -0.3494266140        0.4527687041
 H        -3.0724027750        0.0644953072        3.8955319868
 H        -4.4960036381       -0.8660237252        4.8437237651
 H        -4.5459781287       -0.2632136428        3.2088219416
 H        -1.7217208780       -1.7446301538        4.7697678958
 H        -2.8832871895       -2.9147425593        5.2586161309
 H        -1.6164583796       -3.3084978304        4.0102109532
 H        -3.9423464250       -2.7223946000       -1.0769779164
 H        -2.5869632961       -3.2326370569       -0.1519467498
 H         2.0753119679       -2.0262001842       -3.3996406012
 H         0.8155953491       -3.1892219837       -3.9874447263
 H         1.1477082405       -3.0176511524       -0.8842811630
 H        -0.1363824844       -2.6667951744        0.1874325615
 H         0.6847413967       -1.3576508610       -0.6588982716
 H        -1.8071232448       -4.0319240471       -1.5691033516
 H        -1.7049666252       -3.8685054577       -3.2704031450
 H        -0.3139993974       -4.4389544074       -2.3219561250
 H         1.8558687783       -0.4680870926       -5.1522820249
 H         1.6552339518       -2.0663488768       -5.9509033195
 H        -3.0867515084        0.4285373116       -8.0453256965
 H        -3.0200651513       -0.0111688334       -6.4468939856
 H         1.2688138862        1.0418816057       -7.9752347950
 H         0.8241566553       -0.3024199232       -9.1343321109
 H         1.7680210053       -0.7410211482       -7.7518282728
 H        -1.0161006889       -0.7749906449       -9.3168072256
 H        -0.3328091210       -2.2104864881       -8.5268767219
 H        -1.9739801419       -1.6364270921       -8.0709184539
 H        -4.4937743170        1.9946553299       -6.5754883828
 H        -3.0204581648        2.9195578983       -7.2003276607
 H        -2.1769575375        6.1633753352       -3.0412365166
 H        -3.4087607857        6.0193395421       -1.9616170180
 H        -1.1042751648        4.9401759831       -4.8762095794
 H        -2.3595752963        5.9497596787       -5.3508424232
 H        -2.0215082567        4.6541735410       -6.4492909131
 H        -4.7371478052        5.4260133487       -4.5054879310
 H        -4.4215039958        4.8018194020       -6.1835753410
 H        -5.2195178407        3.8510828683       -4.9086416456
 H        -1.1973031539        6.1703657623       -0.6621083930
 H        -2.0403262372        4.5467827720       -0.3928008281
 H        -0.7524257249        4.3314824353        1.7453479880
 H        -0.5518144904        2.7604920167        1.9952893149
 H         2.7131778139        4.2478126559       -2.1719008550
 H         1.6720432598        2.8953106532       -2.2566041463
 H         2.7934658548        3.0643607434       -0.9787985480
 H         2.2928889739        5.6098127111        0.2234040740
 H         1.4411786777        6.6527787497       -0.8776528098
 H         0.5264112652        6.0947727405        0.4275475699
 H         0.8875558900        4.3984839674        3.5625178349
 H         1.6712490276        4.8333855724        2.0744920503
 H         2.8126357487        0.8408230076        5.3198301141
 H         4.2685897340        0.5064363242        4.5163618192
 H         4.3413425262        1.0541702571        2.3848550057
 H         5.7028030734        1.9947837054        2.8141653240
 H         4.5130765518        2.2357582143        1.3265939212
 H         4.9971418526        4.7413050585        3.8769154720
 H         4.4842205594        4.8046476265        2.2610538521
 H         3.3119961751        5.2051131050        3.5854561348
 H         4.3174069883        1.6107856856        7.3460471331
 H         4.2072246976       -0.0398268599        7.1351421918
 H         8.2638605629        3.1069119119        8.7252673536
 H         7.9958315718        2.6808416129        6.9762780943
 H         6.5765131617        3.0337984666        8.0204341837
 H         7.4471832739       -1.7372160339        8.0365131447
 H         6.4409148892       -1.9846145899        6.5952460782
 H         5.7550329190       -1.2769340314        8.0337551955
 H         9.2380873436       -0.4210951376        6.9038361731
 H         8.3127479460       -0.9134382059        5.5751453950
 H         8.6512404511        0.7860447225        5.7364347481
 Na       -1.1517344296        1.5357223034       -2.3844061662
