155

 C         4.1589801137       -2.5248934500       -2.5081016729
 C         4.5935067206       -1.6119894791       -3.7234826500
 C         5.7504878339       -0.6094714854       -3.5731741743
 C         6.3987767960       -0.6659471404       -2.0807109758
 C         7.6833378373       -1.4496874544       -1.9155010336
 C         6.8599643746       -0.9251342839       -4.5550789595
 C         5.0874677302        0.8187049130       -3.6983146879
 O         3.9786816059       -1.7534942969       -4.7731696794
 O         5.7950829929       -0.2209601431       -1.1396607722
 C         8.0222012177       -1.6921560873       -0.4815580693
 C         6.9200943349       -2.5364971470        0.2239116876
 C         6.7919159710       -2.3984834003        1.7924945879
 C         6.4714620126       -0.9249648346        2.1294267771
 C         5.0884946840       -0.4977866765        2.5643259644
 O         6.3427034972       -3.4761335508       -0.3227471314
 O         7.3661299098       -0.0626713735        1.9773316837
 C         5.6769358212       -3.3465158741        2.3757889240
 C         8.1639873086       -2.8311250678        2.4855384159
 C         4.5151177449        0.6456100686        1.7425563163
 C         3.1985338891        1.0408526014        2.3431007520
 C         2.3099840037        2.0428331212        1.5220515095
 C         0.7574612379        1.5125805643        1.3798911583
 C        -0.1575517084        1.5732867747        2.5509286355
 C         2.2184031917        3.2990764623        2.3504691406
 C         2.7939357421        2.5071345389        0.2166939093
 O         2.8249176130        0.5734277221        3.3850280607
 O         0.4099304479        1.2442130022        0.1973933750
 C        -0.1846636087        0.2559374649        3.3710996223
 C        -1.4177697920        0.3223942354        4.2207499430
 C        -1.7975726286       -1.1439602369        5.0745903472
 C        -2.0170856446       -2.2933915946        3.9574801577
 C        -3.3843707878       -2.5698482282        3.4031744577
 O        -2.0012746853        1.2833209548        4.5984861044
 O        -1.0589216541       -2.8867403488        3.4812910615
 C        -0.4625431515       -1.5079578103        5.8500330629
 C        -2.9674900838       -0.7740301965        6.0728372679
 C        -3.3499456538       -3.2037006942        1.9913949592
 C        -2.7273069033       -2.1545411784        1.0197872977
 C        -1.6644902719       -2.6318318354       -0.0162541731
 C        -2.3654762041       -2.1165627749       -1.3298206222
 C        -2.8632568257       -3.0272027017       -2.4806360678
 C        -0.2773871711       -2.0780878994        0.1200862092
 C        -1.4565987328       -4.2590256566        0.0092667066
 O        -2.9668657568       -0.9595180595        1.2072016064
 O        -2.6156414090       -0.9193944013       -1.5407598984
 C        -4.2438407390       -2.5035354819       -3.0099704333
 C        -5.3048240268       -2.4048415625       -1.8606823110
 C        -6.8529723198       -2.0051439036       -2.0746943254
 C        -6.9139856916       -0.5949142628       -1.3978566086
 C        -7.0025047550       -0.5093752234        0.1613528963
 O        -5.0273962639       -2.7675264214       -0.7616805256
 O        -7.0907755709        0.4007913657       -2.1148863665
 C        -7.2247510974       -1.9225721052       -3.6561639931
 C        -7.7195916218       -3.0745565586       -1.4514742427
 C        -6.6423390687        0.8380614609        0.8475907589
 C        -5.2138412369        1.4829374267        0.4445374005
 C        -4.7629158758        2.9165245093        1.1097794517
 C        -3.4347500800        3.2791871420        0.5045527264
 C        -3.3878156795        4.5099140286       -0.4337106185
 C        -5.8085643875        4.0367958365        0.8710637401
 C        -4.7153586160        2.8110952369        2.6491264350
 O        -4.4428814331        0.9005841000       -0.2573488742
 O        -2.3549151378        2.7812661378        0.8464742105
 C        -2.1803500833        4.5689628818       -1.4377177399
 C        -2.0458974434        3.2870044051       -2.4842684682
 C        -2.6446343387        3.4044146133       -3.8918858803
 C        -2.1880718140        4.5509234951       -4.7549511876
 C        -2.8009657194        4.7376412833       -6.1007410520
 O        -1.6885775019        2.1947347916       -2.0614555937
 O        -1.3807680936        5.3599857435       -4.3145468106
 C        -2.5473233481        2.0656863486       -4.6758810412
 C        -4.1756415954        3.7650717681       -3.6013557161
 H         3.4695851746       -2.0080188396       -1.8035784251
 H         3.5999901574       -3.2991869186       -2.8290559466
 H         5.0618716399       -2.9109754713       -2.0684461815
 H         7.3863336460       -2.3665648713       -2.4615504237
 H         8.3539106154       -0.7330181951       -2.2883611198
 H         6.6060836750       -0.4990065314       -5.4619520357
 H         6.8344414519       -1.9489129430       -4.7048994771
 H         7.8171780074       -0.5911435996       -4.3420034390
 H         4.4623890078        0.9997293611       -2.8420508178
 H         5.8459126157        1.6215542518       -3.6618961397
 H         4.5474333202        0.7449188565       -4.6612241976
 H         8.8408479750       -2.3743844900       -0.4905024497
 H         8.3056611254       -0.8037334983        0.1079313707
 H         4.3527253866       -1.2811892360        2.4692803048
 H         5.0589052149       -0.1288913843        3.6059382181
 H         4.7208964205       -2.8863541990        2.2638556470
 H         5.9258224910       -3.5851931096        3.3143589644
 H         5.6839355567       -4.2709151997        1.7419288944
 H         8.1272696020       -2.8788168677        3.6044815457
 H         8.3828382004       -3.8580747978        2.1025120690
 H         8.9071886793       -2.0706685866        2.1807339563
 H         4.4753290148        0.3865897069        0.7073896065
 H         5.0861969619        1.5932807447        1.6769509531
 H         0.1813591759        2.3009552722        3.2566349145
 H        -1.1357928874        2.0134402512        2.3913152142
 H         3.2303747309        3.7490376960        2.1805010435
 H         2.1900169580        3.0874455912        3.3824043387
 H         1.4928323178        3.9536442569        2.0076604177
 H         2.8380916510        1.6766180693       -0.4580267843
 H         2.0012155460        3.0987646190       -0.2328209089
 H         3.7252740697        3.0661264024        0.2672803993
 H        -0.0387621593       -0.5600007164        2.6645376037
 H         0.6372829733        0.2850549128        4.0809463177
 H        -3.9217503939       -3.3010572985        4.0963493152
 H        -3.9606380875       -1.6203073611        3.2913751209
 H        -0.0712736673       -0.4953901498        6.0733116802
 H         0.2391798357       -2.1101765207        5.3006353621
 H        -0.6539360496       -2.1620458251        6.7651474115
 H        -3.6898584141       -0.2086415625        5.4724995339
 H        -3.4622572903       -1.6182462946        6.5662261599
 H        -2.5709980235       -0.1931952455        6.9856976834
 H        -4.3642402366       -3.4968618578        1.8297727479
 H        -2.7146010227       -4.1001951540        2.0418130991
 H        -2.1008955362       -3.0864034870       -3.2183921137
 H        -3.0921836684       -4.1260747168       -2.2705302743
 H        -0.1221673418       -1.0565502072        0.4078781701
 H         0.2948892479       -2.1666163044       -0.7932957379
 H         0.1254858377       -2.7457225220        0.8705760855
 H        -0.8284032473       -4.4916679677       -0.7616705166
 H        -0.8847449412       -4.4238928413        0.9758501386
 H        -2.3306906349       -4.8975757206       -0.0252188240
 H        -4.2528587987       -1.5802709042       -3.6055814289
 H        -4.6798599476       -3.2122465345       -3.8075719632
 H        -7.9821793023       -0.7759294149        0.5664479611
 H        -6.3010638205       -1.2638540729        0.5962534660
 H        -8.2352982863       -1.5617264962       -3.8402012277
 H        -7.2220580086       -2.9931670602       -4.0157058985
 H        -6.6403739469       -1.2945040202       -4.4061987936
 H        -7.5951423109       -4.0427588109       -1.9968567404
 H        -7.3084989196       -3.2725981862       -0.5498549727
 H        -8.7813421495       -2.8740250076       -1.2740520492
 H        -6.6186271535        0.6915232849        1.8776272157
 H        -7.3686155585        1.5999939293        0.6112119049
 H        -4.2995443200        4.6779177138       -1.0355898074
 H        -3.1987270204        5.2922422025        0.3227483268
 H        -5.2960100197        4.8555281906        1.2539576276
 H        -6.7315454939        3.8251640007        1.4907037763
 H        -6.0823087355        4.2079544933       -0.2098767029
 H        -4.6313563212        3.8089404632        3.1614351019
 H        -5.7123066018        2.4335809754        3.0612987169
 H        -3.8858732622        2.1564663962        3.0513695325
 H        -2.4077480175        5.3350082342       -2.1293020717
 H        -1.2559922473        4.7017594059       -1.0112355790
 H        -3.7609412118        4.2913465717       -6.1034433033
 H        -2.8543067873        5.7872241836       -6.4456537755
 H        -2.2846677975        4.1086396275       -6.8595800913
 H        -1.4693822247        1.9227633517       -4.9260271145
 H        -3.2063950606        2.1454731031       -5.5067493152
 H        -2.8234967664        1.1638251485       -4.0870992617
 H        -4.5579414138        3.2042348096       -2.7644620554
 H        -4.3141090168        4.9059683191       -3.5169002232
 H        -4.7826168932        3.4509418414       -4.4692293148
 Na       -1.9263691586        0.8041711311       -0.2551720190
