155

 C         3.7529667030       -1.0147604403       -4.3187937462
 C         5.2480469751       -1.3049675814       -3.9796422163
 C         6.1599194111       -0.1480247698       -3.2448922912
 C         6.2945781537       -0.4343902606       -1.7503991839
 C         6.5403306778       -1.8388109018       -1.2941080104
 C         7.5577985761       -0.1231385047       -3.9889985060
 C         5.5824861739        1.2194214102       -3.4866440549
 O         5.6712099005       -2.4153786170       -4.1455151701
 O         6.3423558593        0.5401033327       -1.0035353891
 C         7.0113095566       -1.9136969835        0.2000009847
 C         5.8282888336       -1.8974668595        1.1087062534
 C         6.1575302759       -1.8998785850        2.7344515104
 C         5.7097735367       -0.3407745552        3.1860500584
 C         4.2742277144       -0.1661718514        3.5620092350
 O         4.6821903017       -1.6493721756        0.7384078269
 O         6.5920548340        0.4779869925        3.3319926799
 C         5.2452798463       -2.8695567325        3.4599003207
 C         7.5950896243       -2.1168604136        3.1770812116
 C         3.7561225710        0.9283393856        2.5867988340
 C         2.3052947685        1.2946474200        2.8119509001
 C         1.6865480003        2.4633727318        1.9409082541
 C         0.2422865924        2.1896454615        1.7491309684
 C        -0.6672196741        1.9163538220        2.9194423545
 C         1.9327587248        3.7464496448        2.8816954902
 C         2.4603008792        2.6836472301        0.6005010037
 O         1.6276888282        0.8224826800        3.6869759877
 O        -0.1975380874        1.9145989648        0.6361479308
 C        -1.1752273368        0.3069305709        2.9798030914
 C        -1.6844007724       -0.1576288050        4.4484618350
 C        -1.2105230156       -1.5855647978        4.6862078819
 C        -1.0233009372       -2.5692064569        3.4619654087
 C        -2.1356060211       -3.1273189945        2.7668891222
 O        -2.4288681196        0.4935452254        5.1091502554
 O         0.1522784225       -2.8279091708        3.2036915265
 C         0.1449353856       -1.3489935804        5.4463421728
 C        -2.3335111153       -2.2476286357        5.5631265821
 C        -1.8392977505       -3.6629524831        1.3243915115
 C        -1.8895476616       -2.5465925214        0.2970923620
 C        -1.1134816261       -2.7969994909       -1.0813957153
 C        -2.0139774771       -1.8831139160       -2.1354432264
 C        -2.6292224465       -2.7114274134       -3.3033962345
 C         0.2939332493       -2.1566492379       -0.8357000247
 C        -0.9209101497       -4.3069274135       -1.3539761346
 O        -2.4148629658       -1.5094253571        0.5179543786
 O        -2.0391171275       -0.6444539271       -2.0618074612
 C        -4.0847992371       -2.3871341247       -3.6294174219
 C        -4.9199825392       -2.7255831350       -2.4128790675
 C        -6.4062376076       -2.5875774855       -2.4456964843
 C        -6.8404522216       -1.1101793823       -1.6859103255
 C        -7.2047168976       -1.1250649699       -0.1366004349
 O        -4.4472959272       -3.1461410217       -1.3571822076
 O        -6.7765298979       -0.0811568511       -2.2908439936
 C        -7.0107636879       -2.4321818416       -3.8516658581
 C        -7.0777358864       -3.7386505735       -1.6798884899
 C        -7.0821654212        0.1519062616        0.6064892398
 C        -5.6323770820        0.7397547442        0.4969665721
 C        -5.3084088840        2.1092698082        1.0858004779
 C        -4.2821971536        2.9428547821        0.2523689956
 C        -4.8547540910        3.4335167924       -1.1353992414
 C        -6.5169656930        2.9984108720        1.2515241820
 C        -4.5953871167        1.8727699013        2.4868448712
 O        -4.7694173378        0.0680686992       -0.1013400929
 O        -3.0990662084        3.1435283151        0.4858139957
 C        -3.7434125717        4.1364865123       -1.9972750271
 C        -2.6331316280        3.2214460671       -2.6551348199
 C        -2.0956874912        3.7051793019       -4.0745512363
 C        -1.0950553083        4.9863710272       -3.8268697013
 C         0.1441360317        5.1049099002       -4.7619951134
 O        -2.2962173873        2.1405164007       -2.2201899223
 O        -1.2291813214        5.8390493950       -2.9980007240
 C        -1.2314523162        2.6330502083       -4.6774974284
 C        -3.1328517421        4.1519239592       -5.1249708659
 H         3.6555489254       -0.3792200113       -5.2070974159
 H         3.1655342318       -1.9680253797       -4.6076736349
 H         3.2877315742       -0.6218439147       -3.4392884977
 H         5.7069252845       -2.5359442511       -1.4739138051
 H         7.3125271273       -2.3252044823       -1.8198466316
 H         7.4890244840        0.4407217495       -4.8933309010
 H         7.8064931339       -1.0930223871       -4.3035364769
 H         8.2628635383        0.3733307205       -3.3958862982
 H         4.5445664985        1.3608354230       -3.1837627478
 H         6.2055072210        1.9288189427       -2.8680281325
 H         5.7670405789        1.6380536280       -4.5035922948
 H         7.4878197587       -2.9120864846        0.2966929062
 H         7.7031573244       -1.0202328301        0.3427029937
 H         3.6771051482       -1.0905336022        3.3089796044
 H         4.1317764574        0.1011584315        4.6052325037
 H         4.2920620007       -3.0829406540        2.9682970290
 H         5.0136763644       -2.5649702394        4.5029421094
 H         5.7385483848       -3.7088059007        3.5526678825
 H         7.8057574885       -1.9454170253        4.2535034476
 H         7.9143573145       -3.1872431298        3.0511012171
 H         8.4108194999       -1.5901108203        2.6914874172
 H         3.8193904409        0.4944536342        1.5396264954
 H         4.3795081580        1.8089932053        2.6598531129
 H        -0.0385323810        2.1231643759        3.7812198702
 H        -1.5261317270        2.6530024484        3.0244331688
 H         2.8426110214        4.2943314371        2.6120399056
 H         2.1701790234        3.3845160812        3.8790874001
 H         1.1654327779        4.4946545437        2.8153610224
 H         2.3059812233        1.8604580912       -0.0808820759
 H         2.1321599690        3.6165032314        0.1218769617
 H         3.5112314653        2.9452729581        0.7385317572
 H        -2.0842096531        0.1081368021        2.3659273427
 H        -0.3084884334       -0.3458912241        2.7010179486
 H        -2.6091253469       -3.8406920137        3.4031093762
 H        -2.9079885401       -2.2775475770        2.4700437332
 H         0.1576756238       -0.4741171236        6.0546967881
 H         0.9593723793       -1.0765143142        4.7678536046
 H         0.4665982137       -2.2439165712        5.9516484610
 H        -3.2723480065       -2.0200493316        5.0237429119
 H        -2.1568676118       -3.3492306916        5.6392703469
 H        -2.4771678708       -1.7722457981        6.5738663950
 H        -2.7551843103       -4.2542764541        1.1551548581
 H        -0.9558511385       -4.2764778183        1.1814820654
 H        -1.9973362394       -2.5021130882       -4.1159219647
 H        -2.5613814790       -3.8380946686       -3.0571000223
 H         0.3527174656       -1.0813226832       -0.9483266731
 H         1.0349434957       -2.5899029322       -1.4780209067
 H         0.5957590521       -2.3730270088        0.1847679492
 H        -0.5134274267       -4.5621133732       -2.3516320152
 H        -0.2865667422       -4.8557778494       -0.5870736278
 H        -1.9279490143       -4.7593378701       -1.3294141814
 H        -4.1173659195       -1.3227905459       -3.8160961749
 H        -4.4679039865       -2.8738942882       -4.4844151234
 H        -8.1997208707       -1.5141756038        0.0438904949
 H        -6.4550655805       -1.8698438433        0.1403355695
 H        -8.0374273557       -2.6116866645       -3.7227312042
 H        -6.7613994661       -3.2070635131       -4.5562059806
 H        -6.9393023891       -1.3210587978       -4.0280233589
 H        -6.6347128485       -4.6310376538       -2.0313529982
 H        -6.6749717345       -3.4673524413       -0.6320005890
 H        -8.1977084739       -3.7628949874       -1.6521380277
 H        -7.2900630046       -0.0003833281        1.7022925043
 H        -7.8464671721        0.9746327608        0.2824522728
 H        -5.2513687515        2.5822451193       -1.6969798319
 H        -5.6329688749        4.1872374575       -1.0216587972
 H        -6.2915465558        3.9060964576        1.8658437887
 H        -7.3825801054        2.4758271006        1.7650656073
 H        -6.8904988637        3.3647535926        0.2776376995
 H        -3.8730123892        2.5941734019        2.6625989253
 H        -5.2303428627        1.6804326705        3.2467368357
 H        -4.0800027161        0.8903892622        2.3014249589
 H        -4.3596183954        4.5957328003       -2.8491486181
 H        -3.2211735987        4.9465550866       -1.5310398591
 H         0.3937557105        6.1650090278       -4.9269044020
 H         1.0536539154        4.5692552905       -4.4677841117
 H        -0.1323215606        4.8776561138       -5.8224108205
 H        -0.4192539068        2.3081687120       -4.0519118492
 H        -0.8361347134        2.8962622139       -5.6953705880
 H        -1.9305396448        1.8576178885       -4.9654308156
 H        -3.9167429753        3.4065725182       -5.2363967472
 H        -3.5894127502        5.1284825070       -4.7814114895
 H        -2.6299660832        4.4108319690       -6.0822172729
 Na       -2.4087879346        0.8422710465       -0.3629446832
