155

 C         5.2367016006       -0.9644611702       -5.5428617271
 C         5.9889457883       -1.3307054475       -4.2214097436
 C         6.5973330720       -0.1587709023       -3.2946689799
 C         5.5241812229       -0.2447619988       -2.0415282169
 C         5.5822678498       -1.3971000245       -1.0072314168
 C         7.9627949532       -0.5950059028       -2.7649961358
 C         6.5616549291        1.1879353278       -3.9378102306
 O         6.1786873595       -2.5055701225       -3.9891205344
 O         4.7791719770        0.6931040119       -1.8447215016
 C         6.0779748685       -0.9969253180        0.3468844300
 C         5.0299655538       -1.3237237704        1.5191112840
 C         5.5141223543       -1.1084978913        2.9632906216
 C         5.6781299108        0.4399291432        3.1231990036
 C         4.5593791463        1.3395312472        3.7430411935
 O         3.8482916295       -1.5497234690        1.3125661217
 O         6.6449003389        1.0680225392        2.7389769933
 C         4.4439523777       -1.7296588463        3.8294724374
 C         6.8892013168       -1.7491767532        3.2004217874
 C         3.3602267602        1.3838959099        2.7777934595
 C         2.1605585580        2.2835183086        3.2497114039
 C         1.0995190116        2.8814429999        2.1302899656
 C        -0.1859031856        2.0395696718        1.7987002206
 C        -0.8497100157        1.2409632992        2.9756063316
 C         0.6137783459        4.2647948296        2.8052665586
 C         1.8458579707        3.3272446807        0.7513896431
 O         2.0496676700        2.5419389164        4.4283714232
 O        -0.6296286579        1.9712869433        0.6996034096
 C        -0.5119508994       -0.1854836446        3.3813894040
 C        -1.7338546976       -0.8018489214        4.0122087806
 C        -1.7309119493       -2.3305305556        4.4810568873
 C        -1.1877494592       -3.0926022068        3.1791076972
 C        -2.0504592233       -3.9611432500        2.2464340450
 O        -2.7352671136       -0.1820410164        4.2788342719
 O         0.0258619928       -2.9621407522        2.9258522740
 C        -0.6305335985       -2.5334459938        5.5299681803
 C        -3.1731308894       -2.8599686327        4.9067526001
 C        -1.5910310290       -3.9859648405        0.7598174444
 C        -1.5204400390       -2.6040505642        0.1706032111
 C        -0.7369901131       -2.4988432028       -1.1961363379
 C        -1.8889278020       -2.0830635574       -2.2306080523
 C        -2.3945207453       -3.1869627518       -3.2042938014
 C         0.4354661514       -1.5920194050       -0.9261514644
 C        -0.1178163471       -3.8352620573       -1.6788876663
 O        -1.8070504857       -1.6587674665        0.8783923434
 O        -2.3114012534       -0.9641004525       -2.2391260303
 C        -3.7396451319       -3.0124485484       -3.7386762505
 C        -4.8429977572       -3.2838193383       -2.5822871112
 C        -6.3000521775       -2.9050850881       -2.9551584986
 C        -6.8224329047       -1.6212421714       -1.9172550955
 C        -6.6840034889       -1.7553932951       -0.3869300717
 O        -4.5474722675       -3.7379159367       -1.4977516549
 O        -7.1970358442       -0.6037205685       -2.4309130145
 C        -6.5311181668       -2.4474082273       -4.4034729613
 C        -7.2751702951       -4.0812471127       -2.5547308940
 C        -6.8557598690       -0.3273562778        0.4045186309
 C        -5.4233841524        0.5300069831        0.4628493178
 C        -5.4819194369        2.0808027847        1.0111919265
 C        -4.2504932110        2.7359618590        0.3035529423
 C        -4.4090332257        3.4225793916       -1.0318567188
 C        -6.8036476968        2.7121042055        0.5961583750
 C        -5.2971968668        2.0390808074        2.4784936141
 O        -4.4317693452        0.0248366566        0.0251840014
 O        -3.1458877095        2.6304493146        0.8087885783
 C        -3.1661389820        4.1602961966       -1.5505174387
 C        -2.1635809912        3.2669466272       -2.3517745356
 C        -1.2219648605        3.8281757650       -3.5040691845
 C        -0.5928961212        5.2004487774       -3.0920400875
 C         0.9303682903        5.3800529129       -2.9176706431
 O        -2.0084014382        2.0768845744       -2.0296620343
 O        -1.3206484161        6.1056199132       -2.8312776016
 C        -0.2193686338        2.7547763652       -4.0698661920
 C        -2.2622249469        4.2353757576       -4.5735020355
 H         6.0222596365       -0.6376161537       -6.1773116419
 H         4.7100966894       -1.8507338953       -6.0045644226
 H         4.6476062025       -0.1064957702       -5.5192640574
 H         4.5328243104       -1.7114278548       -1.0901426884
 H         6.0930959062       -2.1618671859       -1.5447747399
 H         8.6264583831       -0.8614897667       -3.6125223682
 H         7.9559237843       -1.6144836777       -2.2462227108
 H         8.3048079560        0.2499023492       -2.1002965231
 H         5.4733727481        1.4146937654       -4.0405324250
 H         7.0153172353        2.0029229550       -3.3844738398
 H         6.9005364331        1.1412597971       -4.9850638704
 H         7.0389838864       -1.4214482550        0.4107315939
 H         6.3190790502        0.0856413879        0.5052805334
 H         4.1437106960        1.0151411099        4.7445204213
 H         4.9521131290        2.3005258286        3.9565485884
 H         3.5566116853       -1.2156805451        3.8881135237
 H         4.7688108764       -1.9782636968        4.8611310393
 H         4.0759414028       -2.7248131733        3.3937704244
 H         7.3941475442       -1.5496096468        4.1589573368
 H         6.8140166880       -2.8416134951        3.2962249072
 H         7.5959586369       -1.3911805452        2.4111692073
 H         2.9915097040        0.3432654578        2.5926891076
 H         3.6350132234        1.6728787183        1.7762916867
 H        -0.7752327490        1.9420003558        3.7854573545
 H        -1.9533197944        1.2758296712        2.8597452085
 H         1.5116529968        4.8409927228        3.0797500142
 H         0.1282356589        4.2555009508        3.8350750689
 H        -0.1060890559        4.9453301995        2.2049270679
 H         2.6298860246        2.5890243052        0.4474597365
 H         1.1618436745        3.3028774045       -0.0903938910
 H         2.2293329667        4.3412918782        0.9085910560
 H        -0.2830361326       -0.8254012887        2.5480838624
 H         0.2980100774       -0.3045463699        4.0915554605
 H        -2.1860612368       -5.0924641842        2.6901907333
 H        -2.9745667358       -3.3714736570        2.3132022445
 H        -0.7663881754       -1.9594739646        6.4700388911
 H         0.3240364476       -2.2404051284        5.1057156552
 H        -0.4078062590       -3.5703420437        5.6432426278
 H        -4.1041020330       -2.4862123123        4.4575638953
 H        -3.1132318751       -3.9644801806        4.8332883037
 H        -3.3188412051       -2.7472160074        5.9569291489
 H        -2.0777013393       -4.6648967567        0.0717082945
 H        -0.5518686619       -4.3197765652        0.6267611356
 H        -1.6104347506       -3.3252080458       -3.9553084552
 H        -2.4492227166       -4.1530312100       -2.6370701243
 H        -0.0366187865       -0.8189268599       -0.3484093203
 H         0.8360702034       -1.1576856503       -1.8136332999
 H         1.1953523223       -2.0607652224       -0.3181491920
 H         0.3135406307       -3.6137204551       -2.6737798782
 H         0.7290501843       -3.9161839849       -1.0996308819
 H        -0.7232028392       -4.6947292895       -1.7939871048
 H        -3.9311356706       -1.9285603750       -4.0410953195
 H        -4.0027958182       -3.6080707506       -4.6314293914
 H        -7.3429982634       -2.5551481197       -0.0740325567
 H        -5.6772463210       -2.0739899656       -0.0557889444
 H        -7.5381099505       -1.9537975676       -4.6328093671
 H        -6.2685987577       -3.2995032528       -4.9963270765
 H        -5.8845796717       -1.6936840808       -4.7955324475
 H        -7.2827172262       -4.9375075543       -3.2755153413
 H        -6.9516316882       -4.4817651559       -1.6571333032
 H        -8.2602426655       -3.7560430967       -2.3552599357
 H        -7.0670892096       -0.4288860902        1.4229365635
 H        -7.4615099853        0.3963119720       -0.1270661681
 H        -4.8815171972        2.6814707031       -1.7054920942
 H        -5.2287607033        4.1655330363       -0.9539834660
 H        -7.1185011261        3.6409802851        1.0293141273
 H        -7.5957017216        2.1300841775        0.9120469149
 H        -6.9920507775        2.8221894311       -0.4344928083
 H        -5.7212292046        2.9884594746        2.9461881073
 H        -5.8689282003        1.1505420313        2.9976118833
 H        -4.2643437447        1.9868957528        2.7192249228
 H        -3.5032207187        5.0495776922       -2.1387929611
 H        -2.6198262188        4.5394748602       -0.6756469073
 H         1.2175450514        6.4261472942       -2.7254291115
 H         1.4545930227        4.6807541328       -2.2523077303
 H         1.2914611909        5.0618002076       -3.8790150897
 H         0.7067543354        2.7499186631       -3.4934560624
 H        -0.0254696439        2.8187500176       -5.1438639421
 H        -0.6840602626        1.7931017087       -3.9352760862
 H        -2.6650316708        3.3687509869       -5.1418796027
 H        -3.0155170603        4.8453296390       -4.2147025086
 H        -1.7931226459        4.9593154750       -5.1841069259
 Na       -2.2667884891        0.6692768524       -0.3424403705
