155

 C         6.9400538318       -1.2491532737       -5.2675422675
 C         6.4022018736       -1.4363660038       -3.8301240814
 C         6.6978509218       -0.1840136411       -2.7853278627
 C         5.2252805213        0.2339392912       -2.4442552086
 C         4.5459755017       -0.4476309696       -1.1193551825
 C         7.3739659761       -0.8187115425       -1.6146048263
 C         7.2939109128        1.0020046119       -3.5454707290
 O         5.9661304788       -2.5167301252       -3.4454182148
 O         4.5061962486        0.9283120407       -3.1367108868
 C         4.7073700691        0.2760081432        0.2275858773
 C         4.2856867812       -0.6064904003        1.3855409908
 C         5.0455633613       -0.4523843970        2.7603435247
 C         5.0544794597        1.1428328664        3.0108442597
 C         3.9081380230        1.7952739435        3.8570739406
 O         3.4270047349       -1.4592348467        1.2657513066
 O         5.9174400248        1.7560906157        2.4243210533
 C         4.3995407062       -1.2813278803        3.8529931465
 C         6.5516652129       -0.8355489072        2.6249021135
 C         2.6364646484        1.8372679366        2.9547275276
 C         1.7247887568        3.0084779959        3.3062491820
 C         0.3989809696        3.1581143718        2.3518685995
 C        -0.3747813164        1.8180825261        2.1340850004
 C        -1.0552748917        1.0500659347        3.3077997970
 C        -0.5134326298        4.1265940439        3.1671224481
 C         0.7811914633        3.7483073625        0.9430499391
 O         2.0072416719        3.8777073644        4.1085644808
 O        -0.2937996377        1.2295241592        1.0875966059
 C        -0.7690703792       -0.4447876579        3.5961434002
 C        -2.1251093803       -1.2861581752        3.7257460899
 C        -2.1299095468       -2.6590260516        4.3796136000
 C        -1.3372894044       -3.5727608110        3.3449512478
 C        -2.1754371230       -3.8468703902        1.9966329138
 O        -3.1890922969       -0.8284509504        3.3970703526
 O        -0.2656684483       -4.1230999835        3.4949560317
 C        -1.2339183865       -2.6517560630        5.6996849828
 C        -3.5428656221       -3.2874819232        4.5666362741
 C        -1.3724119858       -4.1266621184        0.7769048383
 C        -1.1972835143       -2.6958898294        0.0654133522
 C        -0.4810883899       -2.6003143145       -1.3638307957
 C        -1.4998763639       -1.9999221810       -2.2887063357
 C        -1.9277977290       -2.7632077235       -3.5870534594
 C         0.7849522571       -1.7117919160       -1.2302253860
 C         0.0858506667       -3.9589267056       -1.8062836792
 O        -1.5957645978       -1.6622065740        0.6642598302
 O        -2.0486155825       -0.9422358240       -2.0961029916
 C        -3.4832324568       -2.5944206885       -4.0133276838
 C        -4.4141040896       -3.3307321703       -3.1022484981
 C        -6.0660931158       -3.0899467354       -3.0531572026
 C        -6.3488646314       -1.8553879011       -2.2084370754
 C        -6.4154976858       -2.1108317292       -0.6382786550
 O        -3.9674292316       -4.2515247238       -2.4411649796
 O        -6.4897607160       -0.7172645523       -2.6710587711
 C        -6.5056621878       -2.9172644349       -4.4844646380
 C        -6.4694302694       -4.4975308656       -2.4449025647
 C        -6.6818324947       -0.8177785902        0.0782827237
 C        -5.4125022116        0.1278029999        0.0797896584
 C        -5.4580622907        1.6154535443        0.4811243003
 C        -4.1383233437        2.3496303107        0.3590354763
 C        -3.6533548839        2.8469239579       -1.0765648347
 C        -6.6499591269        2.3861117914       -0.2024181556
 C        -5.6738552671        1.5931887417        2.0522316803
 O        -4.3542439817       -0.3980643047       -0.1718219556
 O        -3.3075491121        2.3892510446        1.2578438606
 C        -2.3951309543        3.7079535684       -0.8416513898
 C        -1.3907159375        3.2520288682       -1.9246317143
 C        -0.8073861281        4.1896024552       -2.9648163219
 C        -0.2766578104        5.4587301787       -2.3257422519
 C         1.1795855785        5.7123118016       -2.5075773073
 O        -0.9794765519        2.0749496789       -1.8727731235
 O        -1.1092296493        6.0794910714       -1.6651747731
 C         0.2542208654        3.4211551864       -3.8188044614
 C        -1.9606565823        4.5937279594       -3.9300295823
 H         8.0429943683       -1.1592096180       -5.3050674019
 H         6.7854329977       -2.1548693101       -5.7954219429
 H         6.4026737877       -0.4485844594       -5.9092214700
 H         3.4886294312       -0.6443592544       -1.3157072575
 H         5.0300303382       -1.4623283272       -0.8702637100
 H         8.4069906165       -1.1120633998       -1.9366706831
 H         6.8052613429       -1.6942425060       -1.2922881738
 H         7.2369651989       -0.1028273094       -0.7788324961
 H         6.5840796118        1.4098246718       -4.2840260283
 H         7.5415975016        1.7987684722       -2.8585786539
 H         8.1641850989        0.6951520522       -4.1145669674
 H         5.7477319899        0.6273141575        0.3538510224
 H         4.0393890384        1.2061229902        0.1324762303
 H         3.7159498197        1.2381390262        4.7192232465
 H         4.2364485348        2.8423154489        4.0815815943
 H         3.2672280588       -1.0955043903        3.8353288169
 H         4.8864872731       -0.9742170934        4.7199834698
 H         4.4052181147       -2.4409596516        3.6527725204
 H         6.8697599961       -0.7703166873        3.6411265905
 H         6.7456680088       -1.7449143160        2.1212117962
 H         7.0081164128       -0.1169791194        1.9541889037
 H         2.0111064672        0.9715979502        3.0813933669
 H         2.9584133492        1.9400507356        1.8989527907
 H        -0.8395656278        1.5326140416        4.2736116619
 H        -2.1057253273        1.1242201667        2.9695664416
 H        -0.0281859175        5.1119079035        3.3417846982
 H        -0.8431952336        3.7401507576        4.0953132424
 H        -1.4526201475        4.3183675601        2.7603339505
 H         1.8601065408        3.7059560198        0.8156940716
 H         0.3489243830        2.9660660120        0.3478611127
 H         0.5480221184        4.8202625803        0.8752817815
 H        -0.0676044151       -0.9762257762        2.9006050437
 H        -0.1622540665       -0.5127896996        4.5359281657
 H        -2.8997940665       -4.6388413387        2.3215830338
 H        -2.9725498453       -3.0491236037        2.0787928264
 H        -1.9970338336       -2.4419600863        6.4918689511
 H        -0.4706784439       -1.8694953121        5.5905311888
 H        -0.6731077808       -3.6211189723        6.0456569093
 H        -4.0597760881       -3.2057529571        3.6425648975
 H        -3.5402835397       -4.2463481576        4.9596749096
 H        -4.1071193636       -2.6871938377        5.3176343817
 H        -1.8321076292       -4.9158495548        0.1692266711
 H        -0.3348297230       -4.5069567611        0.9238119748
 H        -1.2916688105       -2.3281944570       -4.3883043326
 H        -1.6630960567       -3.7818405413       -3.6689682629
 H         0.6535789556       -0.6813770045       -1.4891421282
 H         1.4014316540       -2.1546883580       -2.0247357261
 H         1.3375490517       -1.8338607002       -0.3250185877
 H         0.3083243452       -3.9414753131       -2.8510757885
 H         1.0494509350       -4.3425243049       -1.4468324082
 H        -0.7320257697       -4.6801981623       -1.7638166217
 H        -3.7608625954       -1.5460323113       -3.9826196774
 H        -3.6328172866       -3.1237069487       -4.9372991967
 H        -7.1514897467       -2.8352074225       -0.2924892676
 H        -5.4193881721       -2.5888950512       -0.4642763037
 H        -6.7159953048       -3.8048091540       -5.0358966520
 H        -5.7571667829       -2.2708081323       -5.0690102722
 H        -7.3583287406       -2.3013951415       -4.7273514267
 H        -6.1326768472       -5.3009394408       -3.0118961484
 H        -6.1186088668       -4.7541663947       -1.4155210379
 H        -7.5641234641       -4.6138995080       -2.4740338119
 H        -6.9708159013       -0.9356165755        1.1538275547
 H        -7.5857267624       -0.4021307748       -0.3272091189
 H        -3.3309248411        1.9347095374       -1.5839197130
 H        -4.4543597374        3.3547582829       -1.6098239453
 H        -6.7402592899        3.3425458180        0.3313566453
 H        -7.6707529816        1.8364965213       -0.2495498950
 H        -6.3210508219        2.5427333851       -1.2754733792
 H        -5.5638427350        2.5806538083        2.5000126323
 H        -6.6522712168        1.2820192510        2.2828164598
 H        -4.9003686883        0.9067097818        2.5040993338
 H        -2.7364420611        4.6806246889       -0.8613065970
 H        -2.0122756217        3.5061449330        0.2048080927
 H         1.7016836090        6.4400914802       -1.9400735787
 H         1.7034513441        4.7757747065       -2.4927644579
 H         1.1824171674        6.0388575266       -3.5556556632
 H         0.9498239208        2.7716696991       -3.2558830732
 H         0.8003027490        4.0638365416       -4.4347786461
 H        -0.2405020631        2.7619482727       -4.5551242463
 H        -2.5072762312        3.7006124289       -4.0659700722
 H        -2.6497396393        5.3755982032       -3.5183228721
 H        -1.6983276990        4.7534577937       -4.9785447064
 Na       -2.1807560991        0.5020670799       -0.3875699214
