155

 C         7.1183269134       -1.9762669907       -4.8835130283
 C         6.5358948907       -1.6220614569       -3.4984305511
 C         6.8219197803       -0.2194242267       -2.8753160856
 C         5.5081024739        0.4033950511       -2.2191208968
 C         4.9751395931       -0.1380307475       -0.9887587788
 C         7.8512796719       -0.4668332139       -1.7734793560
 C         7.4138811210        0.8388067824       -3.9411562422
 O         5.6980412612       -2.3505854206       -2.9798463697
 O         4.8622793927        1.2301643427       -2.8201142625
 C         4.5854644441        1.0150342834        0.0412386256
 C         3.7960143798        0.3274146965        1.0974568998
 C         4.4520840954        0.0049528398        2.5492532745
 C         4.7240894964        1.4865264661        3.1533518584
 C         3.6079404538        2.2278751739        3.9271018272
 O         2.6264749180        0.0125986076        0.9240892146
 O         5.6531946526        2.1600474152        2.7498444010
 C         3.5045499304       -0.9327947183        3.3697876178
 C         5.8383193599       -0.6989094155        2.2871945196
 C         2.3751375636        2.3986613588        3.1110339644
 C         1.1262258953        2.7762784160        4.0029718319
 C        -0.1283720572        3.2755824520        3.1888532583
 C        -0.7571978974        2.0514348500        2.5565492896
 C        -1.7009789147        1.1832940375        3.3313866215
 C        -1.1059082557        3.9338826609        4.2391870012
 C         0.2804966021        4.3420357237        2.1847721821
 O         1.1957504293        2.8369457241        5.2430189805
 O        -0.4821880732        1.6696659692        1.4426842359
 C        -1.2950144132       -0.3312290722        3.2510795034
 C        -2.5468223453       -1.1717007867        3.7736021222
 C        -2.3289190983       -2.7657274262        3.9925916469
 C        -1.7408027785       -3.2771462053        2.6061832296
 C        -2.5606252950       -4.2762408812        1.7107951099
 O        -3.5150733107       -0.6289127385        4.2121088601
 O        -0.5995663070       -2.8871033829        2.3235082875
 C        -1.3717558251       -2.9744948705        5.1516447278
 C        -3.6694153648       -3.5322123733        4.2530992302
 C        -1.6953570904       -4.3444191200        0.4113090619
 C        -1.2983208223       -3.0281313112       -0.1813163049
 C        -0.2819378770       -3.0010829901       -1.3494248500
 C        -1.1209545967       -2.4316315990       -2.5953131807
 C        -1.4120835552       -3.3423901497       -3.7958690441
 C         0.9638206494       -1.9755277628       -1.3640384961
 C         0.2905594914       -4.3706701002       -1.8570905849
 O        -1.7709394275       -1.9891776463        0.2010887317
 O        -1.6141918478       -1.3056091653       -2.4976002235
 C        -2.9184125771       -3.3406768144       -4.1691412818
 C        -3.7991478230       -3.7209727915       -3.0617515719
 C        -5.3339277808       -3.4958426939       -3.2516879682
 C        -5.6909548971       -2.1943239263       -2.4079906279
 C        -5.9038593338       -2.3369485709       -0.8492381431
 O        -3.3130963673       -4.1928671346       -2.0404578165
 O        -6.0103335193       -1.2019813833       -2.9908140704
 C        -5.6957315163       -3.2634565053       -4.7323015468
 C        -6.0176190628       -4.7979876622       -2.6997356794
 C        -6.0926040542       -0.9703837293       -0.1986796444
 C        -4.9387654707        0.0575204364       -0.1552879155
 C        -5.2528075451        1.3535393135        0.7148803806
 C        -4.1759233929        2.3551170621        0.3332550567
 C        -3.9796069909        3.0100488189       -1.0949951628
 C        -6.6416903762        1.8961810042        0.0584072779
 C        -5.3209566943        1.1342308714        2.2084713425
 O        -4.0130927153       -0.0757514371       -0.8954555831
 O        -3.4715340533        2.7872194053        1.2169796175
 C        -2.7151196886        3.8447048993       -1.2670732993
 C        -1.5257805879        3.2193164321       -1.9392382365
 C        -0.6833432845        4.1443431772       -2.9184047308
 C         0.1154983667        5.2105004733       -2.0714796799
 C         0.6211648354        6.5028765973       -2.7223346366
 O        -1.1759312464        2.0656311914       -1.6552818833
 O         0.0650897993        5.0914197170       -0.8526155988
 C         0.3660886520        3.2823822513       -3.6366730192
 C        -1.4637501730        5.0573645670       -4.0037698576
 H         8.1849768796       -1.8988454454       -4.9623603105
 H         6.8026311058       -3.0040579661       -5.0857120697
 H         6.7559040855       -1.2810076157       -5.6644860618
 H         3.9153379411       -0.5601404259       -1.1508725493
 H         5.5893487063       -0.8278040649       -0.4193300114
 H         8.8455196094       -0.8003529574       -2.2367732468
 H         7.5693501546       -1.1972895771       -0.9632025790
 H         8.1673747143        0.4877951661       -1.1970652990
 H         6.6645876724        1.3107148739       -4.6234454677
 H         7.9405274674        1.6660570118       -3.4609080420
 H         8.2518428620        0.3813934116       -4.4876008313
 H         5.4900255337        1.5711855574        0.4073955658
 H         3.8172668084        1.7385626665       -0.2669017157
 H         3.3793387460        1.6705508390        4.8539888649
 H         4.0125380539        3.1115801477        4.2791138714
 H         2.7960388742       -0.3564792078        3.9863706498
 H         3.9830984025       -1.6527882311        3.9416049609
 H         2.9552828203       -1.5064825352        2.5280082017
 H         6.5375271672       -0.5605107397        3.1147030926
 H         5.6354551031       -1.7344364414        2.1737683437
 H         6.3835848022       -0.1170250721        1.5377814371
 H         2.1900832722        1.4080359415        2.6481382119
 H         2.4630646829        3.0337886098        2.2577857438
 H        -1.6684566631        1.4503594030        4.4019298166
 H        -2.7808676546        1.4176857912        3.2250482815
 H        -1.0250038386        5.0507133281        4.3484489800
 H        -0.8962714044        3.4153837296        5.1601238087
 H        -2.1089244504        3.8290087821        3.9672381751
 H        -0.4053263935        5.1676166983        2.3916691953
 H         1.2782073073        4.6772199711        2.3520263523
 H         0.2990397219        3.8389670054        1.2326916132
 H        -1.0932504566       -0.5457878387        2.1951093579
 H        -0.5185463949       -0.4770869299        3.9925437498
 H        -2.5532584960       -5.2458203890        2.1051872042
 H        -3.5549541899       -3.9185609419        1.5120563281
 H        -1.9127647866       -2.5527175507        6.0529607400
 H        -0.4594992710       -2.3873497072        5.0966373528
 H        -1.3792844382       -4.1102020146        5.2563033016
 H        -4.4680112711       -3.2751504840        3.5682753451
 H        -3.4507454470       -4.4957183006        3.9896138411
 H        -3.9094274110       -3.5474826220        5.3480358057
 H        -2.1796346877       -5.0447680405       -0.2871040078
 H        -0.6998027384       -4.7469866978        0.6793254577
 H        -0.8437356286       -2.9516977559       -4.5913622937
 H        -1.1478238344       -4.3991763592       -3.5942796322
 H         0.6884363290       -0.9430072335       -1.3871601935
 H         1.4706563980       -2.2732954147       -2.2779853664
 H         1.6117657478       -2.0921211386       -0.5138990677
 H         0.7592603307       -4.3342684672       -2.7855815907
 H         1.0445044390       -4.7008975387       -1.0955331871
 H        -0.4622360498       -5.1347652640       -1.6796497720
 H        -3.1806692367       -2.3596606042       -4.5415068506
 H        -2.9067460130       -3.9153557537       -5.0569509504
 H        -6.9096103007       -2.8419435203       -0.8430615956
 H        -5.1219038692       -2.9444953555       -0.3074309850
 H        -4.9583109436       -3.8452561588       -5.3316802572
 H        -5.5109784262       -2.2218087391       -5.1299053042
 H        -6.7230316873       -3.5140050699       -4.9871564127
 H        -5.8966008582       -5.4454572575       -3.5300950504
 H        -5.5115354763       -5.1955536626       -1.8287613938
 H        -7.0741088726       -4.7224209568       -2.4496409678
 H        -6.5660285050       -1.0752942660        0.7320243436
 H        -6.7936747456       -0.4840970138       -0.8379270197
 H        -3.9320269401        2.2349858633       -1.8832263375
 H        -4.8986362090        3.6032837952       -1.3246337881
 H        -6.7635178492        2.9183996367        0.3973419364
 H        -7.4809304985        1.1357212242        0.3195385685
 H        -6.3551382039        1.8381389299       -1.0131810813
 H        -5.5547535602        2.0994342473        2.6634377430
 H        -6.0734795287        0.4445794494        2.5006925905
 H        -4.3460297250        0.7314483485        2.6077728112
 H        -2.9916439345        4.7934336792       -1.7525911775
 H        -2.3511485371        4.1572694528       -0.3110342359
 H         0.9872927596        7.2357069619       -2.0500709639
 H         1.4137846229        6.1580916143       -3.4441417027
 H        -0.1364524009        7.0052275634       -3.3013859522
 H         0.7320606640        2.4580492819       -2.9673252399
 H         1.1740220248        3.8857990203       -3.8541592252
 H        -0.0213914213        2.7720932760       -4.5115527476
 H        -2.1463005082        4.3362411539       -4.5174054138
 H        -2.0950943200        5.8632912593       -3.6383989080
 H        -0.7842430340        5.3548425006       -4.7866174374
 Na       -1.7304964545        0.4215428161       -0.2960439483
