155

 C         7.1585224080       -2.6012753891       -3.9853678897
 C         6.4301765146       -1.6165049795       -3.0547849169
 C         6.9414352335       -0.1395733344       -3.1144332373
 C         6.1093662555        0.8594950704       -2.1503159529
 C         5.6440514144        0.2967895342       -0.7617487684
 C         8.5089029465       -0.1302013170       -2.6575632561
 C         6.7705417550        0.3498356768       -4.6483807509
 O         5.4336316973       -1.9082506541       -2.4587992922
 O         6.1541377161        2.0535212198       -2.4121425689
 C         5.0966998807        1.3614079499        0.2221023455
 C         3.7391801467        0.8846558487        0.9585672867
 C         3.8050590841        0.2866339422        2.4033522198
 C         4.1669119299        1.6086954306        3.1250733464
 C         3.1853234577        2.4498266025        3.9303042500
 O         2.6436937870        1.0745274307        0.4543261397
 O         5.3180445816        2.0107711186        3.0861649353
 C         2.4378435496       -0.3458475645        2.7256084074
 C         4.9831297851       -0.7018147323        2.5210068330
 C         1.7931729138        2.7368589822        3.2651847643
 C         0.5201631018        2.3750613200        3.8971736531
 C        -0.8446250221        2.9592533447        3.2795032104
 C        -1.4484652752        1.5418753971        2.5918345879
 C        -2.4554577205        0.6359329053        3.3251419705
 C        -1.7787466673        3.3906613099        4.4621104834
 C        -0.6761069662        4.0409077307        2.1622963770
 O         0.4435976437        1.5961560799        4.8341111926
 O        -1.0888716316        1.3326366849        1.4556981265
 C        -1.8419379837       -0.8313164050        3.5451611229
 C        -2.8508361821       -1.7881449835        3.9251776939
 C        -2.2899822615       -3.2184509528        4.3950102466
 C        -1.3118051731       -3.8708794721        3.2901482819
 C        -1.9943165100       -4.4152718172        1.9653626519
 O        -4.0319936098       -1.5444215677        3.7892484599
 O        -0.1744008140       -4.0658516308        3.5642706660
 C        -1.3855490622       -2.9848937020        5.6233007050
 C        -3.3927424366       -4.2906756397        4.7573912509
 C        -1.1262813232       -4.2830818688        0.6477839167
 C        -0.8276509666       -2.8782390508        0.0978017309
 C         0.3369732615       -2.7170861184       -1.0173432163
 C        -0.5103093972       -1.9911990798       -2.1922053305
 C        -0.7987119487       -2.4943097664       -3.6941981898
 C         1.5252871310       -1.7372722609       -0.6500678384
 C         1.0640564866       -4.0389039572       -1.4719053140
 O        -1.2313483438       -1.8090515753        0.5081423287
 O        -1.0101387588       -0.9151212404       -1.9660369284
 C        -2.2942390577       -2.2924174253       -4.0987853636
 C        -3.1123146577       -3.1687883813       -3.2064432668
 C        -4.6696358576       -3.3736420077       -3.5629312157
 C        -5.3771981765       -2.2311236463       -2.9074949469
 C        -5.9738926432       -2.2979300471       -1.4373198400
 O        -2.6991664983       -3.7995272768       -2.2322807133
 O        -5.5581906624       -1.1653238745       -3.4742444946
 C        -4.8713927857       -3.3157691880       -5.1469295468
 C        -5.0524802637       -4.8430037376       -3.0807469307
 C        -6.5472564412       -0.8953250876       -0.9680686483
 C        -5.4184791273       -0.0229971480       -0.5364259027
 C        -5.7160664452        1.3928418165        0.0469912596
 C        -4.4856239772        2.3700459229       -0.0595637180
 C        -3.8228658052        2.6285660978       -1.3517035321
 C        -7.0118631996        1.8557382736       -0.6724543129
 C        -5.8851130775        1.2251566960        1.5616428211
 O        -4.2156437400       -0.3609341890       -0.7976873036
 O        -4.2192630840        3.1419688722        0.8579848526
 C        -2.6850993151        3.7425793848       -1.3460685739
 C        -1.3664239637        3.2095037029       -1.9799886906
 C        -0.4924097508        4.1814348905       -2.9175250226
 C        -0.0496483479        5.3020906835       -1.9396668786
 C         0.3418663033        6.7031749051       -2.5780941862
 O        -1.0419210296        2.0579802805       -1.7049348366
 O        -0.1152735120        5.1293453457       -0.7427342641
 C         0.7887984237        3.4853083192       -3.5822820864
 C        -1.4048283731        4.6974448570       -4.1395725265
 H         8.0731397488       -2.0245771833       -4.4328790968
 H         7.5981407751       -3.4093433180       -3.4978613232
 H         6.5227477686       -3.0391938359       -4.7540551085
 H         4.8881601817       -0.4749631282       -0.8708019529
 H         6.5040314314       -0.2657407233       -0.4317549134
 H         9.1206799766       -0.6185558209       -3.3608469720
 H         8.5864037483       -0.6853309619       -1.7736089630
 H         8.9144089368        0.8069033386       -2.5961279934
 H         5.9464941519       -0.1971560898       -5.1654535845
 H         6.6101862926        1.4335655965       -4.7411754247
 H         7.7130291971        0.0468460268       -5.1509859121
 H         5.7586057867        1.5861312242        1.0564532655
 H         4.8792260030        2.3050966918       -0.2713674992
 H         2.9877541542        1.8953601390        4.8546517605
 H         3.7548030203        3.4232261127        4.1853940117
 H         2.5347826020       -1.0695767482        3.6816198464
 H         2.1349887360       -1.0293090976        1.9508283338
 H         1.5251460718        0.2314601395        2.8772679296
 H         4.8621173582       -1.3795137579        3.3540666723
 H         5.0208556521       -1.2828286983        1.5946841638
 H         5.8696482255       -0.0763000019        2.6118475628
 H         1.8224860535        2.0861691586        2.3654293866
 H         1.6434021610        3.7821541530        2.9505524792
 H        -2.6655931373        1.0219154550        4.2977857886
 H        -3.3260560598        0.5571051189        2.6373648537
 H        -1.3495606920        4.2711758920        4.8112339303
 H        -1.7154271662        2.5839606746        5.1962843107
 H        -2.7681343664        3.5465350234        4.0084326371
 H        -1.3318249571        3.9106071962        1.3178311261
 H        -0.8339109253        5.0666683752        2.4997557724
 H         0.2782490469        3.9537661685        1.6245944694
 H        -1.4027272090       -1.2284627370        2.6141525989
 H        -0.9324751760       -0.8028699026        4.1333793434
 H        -2.4257379984       -5.3827905097        1.9941250545
 H        -2.8428165804       -3.8836023439        1.6310673455
 H        -0.4198106837       -3.3806015811        5.5629296148
 H        -1.7309434416       -3.6056434953        6.4677768052
 H        -1.4487058498       -1.9560063765        5.9729284027
 H        -3.8086224854       -4.6042682702        3.7743918492
 H        -2.9266537845       -5.1656720176        5.3190512325
 H        -4.2294342652       -3.7909021112        5.1151745106
 H        -1.4793235118       -4.7968931230       -0.2442503247
 H        -0.1544584771       -4.7732749157        0.9086868782
 H        -0.1570986438       -1.8659316579       -4.3905004511
 H        -0.4317668125       -3.5350241658       -3.7968926570
 H         1.1821980590       -0.7895169054       -0.2697467981
 H         2.0877660336       -1.4817274072       -1.5554982261
 H         2.1929666984       -2.2411677868       -0.0082713259
 H         1.9718749876       -3.7850818809       -2.1392428979
 H         1.4875616970       -4.4967781750       -0.5957209693
 H         0.3641711867       -4.7875897238       -1.8563906400
 H        -2.3346992258       -1.1510753348       -3.8230011387
 H        -2.4573081926       -2.2807288190       -5.1567039575
 H        -6.7432942027       -3.0074301042       -1.3362740308
 H        -5.1768192862       -2.7523150459       -0.8106701462
 H        -4.1815849229       -4.0417426000       -5.5233564575
 H        -4.7620867585       -2.2520045440       -5.3424446601
 H        -5.8298364159       -3.7474518562       -5.4828230033
 H        -4.4490534398       -5.4989803327       -3.7417805225
 H        -4.7378704204       -4.9583657119       -2.0059027129
 H        -6.1581429565       -4.9828887626       -3.1474402162
 H        -7.2566487096       -1.1065615155       -0.0543806247
 H        -7.1816513880       -0.5390838254       -1.8508669729
 H        -3.5288186228        1.7758434920       -1.9469321760
 H        -4.5872334108        3.0643421981       -1.9795290317
 H        -7.2319054558        2.8657372290       -0.2765530641
 H        -7.7399431373        1.2141821206       -0.2994115853
 H        -6.8119938264        1.7861304373       -1.7478582427
 H        -5.4672523862        1.9883419189        2.1350848732
 H        -6.9149995473        1.0429047862        1.7933270302
 H        -5.3547705362        0.3290899778        1.8974456838
 H        -2.9592489267        4.6243396391       -1.9064024219
 H        -2.5131725171        4.0600152997       -0.2650851903
 H        -0.3616092756        6.9882834231       -3.3678766342
 H         0.6488603630        7.4612517194       -1.9386140615
 H         1.2942230115        6.5250519484       -3.0995075403
 H         1.3215633406        2.8580375338       -2.9092466832
 H         1.4264588091        4.3233204297       -3.9085123838
 H         0.4463651853        2.9508331054       -4.4736359623
 H        -1.9373131214        3.8657991419       -4.5431497153
 H        -2.2020359454        5.4680693628       -3.9179834414
 H        -0.6646517836        5.1850104942       -4.8107378766
 Na       -2.0287958451        0.3347302479       -0.2660514102
