155

 C         7.2139004583       -2.7042123126       -3.5862028802
 C         6.3428525782       -1.6061028938       -3.0378517749
 C         6.9347287856       -0.0824173167       -3.0278365759
 C         6.2048956476        0.8531648069       -2.0125740594
 C         5.5871060973        0.3042579944       -0.6445667476
 C         8.4232159258       -0.1148785462       -2.5946268480
 C         6.7893673163        0.3835863099       -4.4885952003
 O         5.1935443639       -1.7761652715       -2.6705766537
 O         6.0163578479        1.9927672949       -2.3125848457
 C         5.1361218319        1.5252330649        0.1886346510
 C         3.8447786576        1.1704926805        0.9048279888
 C         3.9334797766        0.5672612338        2.3292606839
 C         4.1877315096        1.7257316484        3.3890786926
 C         2.9051709002        2.2557403196        4.1932831466
 O         2.7690552088        1.3195077546        0.3788377301
 O         5.3022365617        2.0890841954        3.5964158138
 C         2.6654107573       -0.1817681475        2.6376659511
 C         5.2179153529       -0.4470344735        2.3043735912
 C         1.7242962534        2.7202515809        3.2862465422
 C         0.3291966606        2.3181334556        3.9029214237
 C        -1.1227157966        2.7631404813        3.3276762796
 C        -1.5110662325        1.4890638421        2.5115305012
 C        -2.5982739140        0.5173954805        2.9881660770
 C        -2.0316333912        3.0368733119        4.5419009091
 C        -1.0454629715        4.0617140006        2.4133656443
 O         0.2526903478        1.7067036972        4.9455437233
 O        -1.0493064915        1.3661374718        1.3825205661
 C        -1.8437502346       -0.6417317157        3.8481829059
 C        -2.7339971479       -1.8801795526        3.9319802945
 C        -2.1333148139       -3.2487120996        4.5312246731
 C        -1.2370905150       -3.8647171128        3.2842338816
 C        -1.9078940808       -4.1323248174        1.9379952367
 O        -3.8258731515       -1.8100810481        3.4224933866
 O        -0.2598192857       -4.4381561183        3.5889252539
 C        -1.2418582029       -3.2148637015        5.7013047297
 C        -3.3728395235       -4.3268152480        4.7288266990
 C        -0.8271796238       -4.1815659202        0.8456294705
 C        -0.6449943350       -2.8122682011        0.1889693767
 C         0.3680015607       -2.7289804677       -1.1266453366
 C        -0.5977681888       -2.0461631668       -2.3392918065
 C        -0.4502772901       -2.6916934847       -3.7601433480
 C         1.4933649010       -1.6958901647       -0.7292059372
 C         1.0520016466       -4.0626534546       -1.4652357134
 O        -1.1577516721       -1.8251617511        0.5922340701
 O        -1.1714362380       -1.0132578479       -2.2625354982
 C        -1.8340774083       -2.8889169767       -4.3969069901
 C        -2.8413617089       -3.1766078160       -3.2726291200
 C        -4.3716457053       -3.4266262558       -3.7048982412
 C        -5.1972348579       -2.0722987681       -3.1204861824
 C        -5.9047844640       -2.2100505558       -1.7058252673
 O        -2.4960160307       -3.4580735088       -2.1325201034
 O        -5.1084811427       -1.0175676350       -3.6800265038
 C        -4.5683029079       -3.3116037527       -5.2201417158
 C        -4.8120140775       -4.7193699555       -3.0526469535
 C        -6.5476619361       -0.8975709204       -1.2942740633
 C        -5.5428518429        0.0443300471       -0.6636697007
 C        -5.9957827582        1.4848863529       -0.1265393733
 C        -4.6862306560        2.3377341671       -0.1495505285
 C        -4.0715178510        2.6585700039       -1.4783581197
 C        -7.1173078165        2.0644099429       -1.1422878326
 C        -6.5960700888        1.2244974133        1.2942213829
 O        -4.3502245324       -0.2632902796       -0.6575029259
 O        -4.0399849106        2.4336649523        0.8367995660
 C        -3.0105854522        3.8289802555       -1.4514628630
 C        -1.6211874023        3.2628187196       -1.6860446148
 C        -0.6799998232        4.1421658859       -2.6304528287
 C        -0.1239928226        5.5120133638       -1.8720822677
 C         0.7362475012        6.4239371658       -2.7326061841
 O        -1.3288193534        2.1122405952       -1.3517131734
 O        -0.4389912745        5.8298966834       -0.7206923813
 C         0.6469161618        3.4419782183       -2.9965210312
 C        -1.4301816462        4.4259089401       -4.0172632266
 H         7.4076547596       -2.4508666654       -4.6192282076
 H         8.1357549000       -2.7585410038       -3.0694780426
 H         6.8057371193       -3.6890085959       -3.4931511986
 H         4.9716788027       -0.4756701341       -1.0096952643
 H         6.3767950482       -0.2876538440       -0.1717613874
 H         9.0183624049       -0.7675944309       -3.2804794778
 H         8.4139720340       -0.4763821525       -1.5466506317
 H         8.8570986512        0.9051629501       -2.4642615953
 H         5.7385167272        0.5898503547       -4.6659590526
 H         7.3713582973        1.2683056577       -4.7623260969
 H         7.2242415587       -0.4582800952       -5.0264076529
 H         6.0132156224        1.7265544040        0.8159488548
 H         5.0348840470        2.3399790065       -0.5717798460
 H         2.6271227618        1.4674381839        4.9100183061
 H         3.1202236344        3.1706034935        4.9086926631
 H         2.4705528500       -0.2882135266        3.7422609986
 H         2.5944816087       -1.1511806124        2.2510607843
 H         1.6908084338        0.3482307739        2.1942184728
 H         5.4337155629       -0.9334899714        3.2375400802
 H         4.9544932143       -1.2430862117        1.6071514563
 H         6.0753786729        0.1537749162        2.1913413304
 H         1.7021742521        2.5751515979        2.1666792384
 H         1.7425288781        3.8319309799        3.3947784615
 H        -3.2023232806        0.9991396379        3.6856742980
 H        -3.0097073220       -0.0511017285        2.1325632640
 H        -1.5902142921        3.8316311472        5.0119106371
 H        -2.0714863979        2.1386282190        5.0589252998
 H        -2.9405565581        3.4256164626        4.1722968625
 H        -1.7613119468        4.8255459904        2.7117492143
 H        -0.0720624980        4.5985077036        2.2625948876
 H        -1.2440289026        3.8059411785        1.3631832604
 H        -0.8584853285       -0.8856152972        3.4797759367
 H        -1.4762129195       -0.4237620842        4.8423132511
 H        -2.5036439829       -5.0446832977        1.9057497352
 H        -2.6713802824       -3.4514405069        1.6798503887
 H        -0.8744917000       -2.2005478976        6.0157680735
 H        -0.3188564594       -3.8543997010        5.3694699165
 H        -1.6705736223       -3.5306040923        6.6483230611
 H        -3.9719550221       -4.1941117891        3.8461195994
 H        -3.0534640996       -5.3911490903        4.7485962004
 H        -3.8585308738       -4.0493481336        5.5960897743
 H        -1.0903776749       -4.8875595685        0.0787621589
 H         0.1277022830       -4.5003812312        1.2927361069
 H         0.3380488471       -2.1112885047       -4.2794122655
 H         0.0258234082       -3.6553727095       -3.8017544058
 H         0.9821968640       -0.9331158883       -0.1116918385
 H         2.0119180379       -1.1771693075       -1.5414072462
 H         2.2429079042       -2.2218854714       -0.1583499948
 H         1.6803328423       -3.8886452157       -2.3254963042
 H         1.6368238976       -4.4893126243       -0.6143958314
 H         0.2712572822       -4.8671292844       -1.7468778739
 H        -2.1735576566       -1.9123030887       -4.9185287248
 H        -1.8025149114       -3.7001042901       -5.0823592619
 H        -6.5184157257       -3.0607216123       -1.7620719206
 H        -5.2622238781       -2.5489705675       -0.8674957438
 H        -3.9847227895       -4.1410088388       -5.6830511953
 H        -4.2356767381       -2.3182396260       -5.4326815936
 H        -5.6903829489       -3.3598587876       -5.3848511149
 H        -4.2938136091       -5.5864298589       -3.5841346944
 H        -4.6608804195       -4.6530966914       -2.0226550623
 H        -5.8604207071       -4.8147475960       -3.1818400935
 H        -7.3842545698       -1.1862946966       -0.5817236159
 H        -7.0943454584       -0.3465461854       -2.1044727916
 H        -3.5674293327        1.7211969433       -1.7624229071
 H        -4.7887937562        2.9044282162       -2.2797780940
 H        -7.2578220952        3.1114599850       -0.7823293636
 H        -8.0442882080        1.4577446554       -1.0169073259
 H        -6.8417256404        1.9917835596       -2.2556729197
 H        -7.4231986191        1.7777394111        1.4550926616
 H        -6.8367059544        0.1934272216        1.4069317740
 H        -5.8618539169        1.3890445824        2.1220171705
 H        -3.1854734833        4.4750573611       -2.2561552380
 H        -3.1120961032        4.5098917030       -0.5880907119
 H         0.4299724365        7.4840158170       -2.6066675374
 H         1.7154572019        6.3704857734       -2.3166990873
 H         0.8332154806        6.1331144205       -3.7855296440
 H         1.2012556823        3.4308727279       -2.1234994336
 H         1.2388253194        3.9954781341       -3.7699943575
 H         0.4436941134        2.4133294333       -3.2305260819
 H        -1.8348854192        3.5378368219       -4.4089646919
 H        -2.2359842808        5.1570922478       -3.9227104206
 H        -0.7056130418        4.7321191205       -4.7809085864
 Na       -1.7719879475        0.0798346418       -0.3739717320
