155

 C         6.4812543149       -2.2130509587       -3.6169156488
 C         5.7854472362       -1.3201843447       -2.5821662495
 C         6.5722249015       -0.0426962742       -2.2548312792
 C         5.5724255744        0.9584845425       -1.6606255614
 C         5.0627759223        0.6768200424       -0.2777174441
 C         7.6813866235       -0.4277043480       -1.2486572527
 C         7.0550478694        0.5548129262       -3.5826643421
 O         4.7947711669       -1.7276109403       -2.0192252830
 O         5.1433575678        1.9195196149       -2.2174395418
 C         4.1883795785        1.6914647800        0.4529924392
 C         3.9139717707        1.2341980550        1.9057665229
 C         4.7126414551        1.7558548167        3.2462494636
 C         3.6746952871        2.2902896169        4.2571208864
 C         2.2712762679        1.7057833795        4.5800764460
 O         3.0004953175        0.4715796118        2.0676699637
 O         4.0474839268        3.1333230707        5.0569775816
 C         5.3949320362        0.5511476559        3.9964829225
 C         5.6817295937        2.8833478493        2.9806265748
 C         1.1025815491        1.9591805561        3.6753036504
 C        -0.2426961347        1.8358016136        4.4633412676
 C        -1.5799447276        2.4788633136        3.8131667301
 C        -1.9008891654        1.3063200774        2.7497013421
 C        -2.8130942832        0.1008606779        3.0204299562
 C        -2.6941731618        2.6285170799        4.9048931581
 C        -1.3196814747        3.7558187512        3.0009283867
 O        -0.2842003978        1.4137778020        5.6168569088
 O        -1.4788879553        1.4223427090        1.5969936811
 C        -2.0494699457       -0.7716449715        4.1573395471
 C        -2.6575684078       -2.2332286576        4.2110240127
 C        -1.7104464742       -3.5457240203        4.3100139387
 C        -0.9333405099       -3.5794990593        2.9399499335
 C        -1.6231561867       -4.1458802784        1.6708692931
 O        -3.8210203601       -2.3777356047        4.0349043403
 O         0.0961804154       -2.9144722458        2.8817872229
 C        -0.6614929087       -3.3914573269        5.4402828413
 C        -2.5373785945       -4.8426198692        4.2863612869
 C        -0.7995592688       -3.8335624093        0.3733120503
 C        -0.6668723605       -2.3691875048       -0.0068463223
 C         0.2442270144       -1.9220333673       -1.1590341671
 C        -0.5987936325       -1.4781268271       -2.4063614622
 C        -0.1859466275       -1.8703688235       -3.8154508305
 C         1.0016517112       -0.6079994163       -0.7857617650
 C         1.3703114605       -2.9509002495       -1.5483458124
 O        -1.3616144648       -1.6001140237        0.5754957327
 O        -1.7439918665       -0.9880665357       -2.3206821228
 C        -1.4116808601       -2.3921801759       -4.5921241658
 C        -2.4543984735       -3.3149201669       -3.8229357955
 C        -3.7131978908       -3.8757532475       -4.5293747506
 C        -4.7617484646       -2.7461822610       -4.3051037102
 C        -5.6408592400       -2.7242673186       -3.0908637365
 O        -2.2704224361       -3.5896509820       -2.6747574043
 O        -4.8411764194       -1.8897889504       -5.1504462931
 C        -3.6016765276       -4.2495263391       -6.0477623303
 C        -4.1322103702       -5.0985102269       -3.6759789940
 C        -6.1941597445       -1.3020612852       -2.7762921866
 C        -5.2446709543       -0.5396127584       -1.8969309826
 C        -5.6656541566        0.8897747276       -1.5146574439
 C        -4.3146685169        1.7466596566       -1.4492702025
 C        -3.6107405676        1.8910952483       -2.7879967502
 C        -6.6968371714        1.4996872496       -2.4625636601
 C        -6.4207431905        0.6595089388       -0.1180451875
 O        -4.1631239078       -0.9296464426       -1.5135652234
 O        -4.0942800962        2.3559987690       -0.4144511082
 C        -2.5610908352        2.9706311434       -2.9610497977
 C        -1.3703887742        2.9938740214       -2.0250873489
 C        -0.4521177024        4.2894235208       -2.1754455042
 C        -0.7077121740        5.2259703465       -0.8852600343
 C         0.1117947209        6.4645199786       -0.8257250523
 O        -1.0563203107        2.1553323518       -1.2468750357
 O        -1.4776100517        4.9208763979        0.0170607540
 C         1.0497450784        3.7423932921       -2.1415023120
 C        -0.7684958384        5.0191706331       -3.4748781646
 H         5.7276013727       -2.5124647058       -4.4167849071
 H         7.4238047024       -1.9285028557       -4.0996928469
 H         6.5806713568       -3.1544509034       -3.1046668816
 H         4.5082943164       -0.3276935375       -0.2553275705
 H         5.8450678198        0.3436659305        0.3135749796
 H         8.4563502687       -0.9866655511       -1.6294279026
 H         7.2557903713       -1.0432644914       -0.5334024274
 H         8.1589803419        0.3592900785       -0.8322929361
 H         6.3709743718        0.4728370651       -4.4150468446
 H         7.2305961900        1.6181709989       -3.3880285034
 H         8.0186515852        0.1437726705       -3.8796866241
 H         4.8404271049        2.5718067417        0.3983328088
 H         3.2466125814        1.7606159404       -0.0220164708
 H         2.4766823907        0.7058308718        4.7507084380
 H         2.0786438181        2.1030931238        5.6064521734
 H         5.5999362506        0.9865147117        5.0033993263
 H         6.3136303847        0.2926725393        3.5671065829
 H         4.6593819350       -0.2337429306        4.0402728271
 H         6.5098914312        2.8732364094        3.6979265748
 H         6.1678567264        2.7567844125        1.9704297350
 H         5.2559407045        3.8675043786        3.0266959605
 H         0.9268231582        1.1760446122        2.9886454612
 H         1.2400704055        2.9081747399        3.2021622996
 H        -3.7480151488        0.5224463173        3.4011190705
 H        -2.9591609981       -0.5189848563        2.0953671580
 H        -2.3937292436        3.3595397485        5.7162408788
 H        -2.8628795592        1.8195740926        5.5816619502
 H        -3.6156381528        3.0108312155        4.5244621495
 H        -2.0570371749        3.7859089273        2.2285085938
 H        -1.5852910869        4.6769394175        3.5887111410
 H        -0.3090222491        3.7213586465        2.6593477321
 H        -0.9829802226       -0.9048843497        3.7829301499
 H        -1.9331524671       -0.2041711792        5.0612880647
 H        -1.8426703155       -5.2195250587        1.6289711435
 H        -2.5486018617       -3.6934422961        1.5824587073
 H         0.0942990813       -2.8066430539        4.9872836274
 H        -0.4102195580       -4.2792568576        5.8875579960
 H        -1.1145036308       -2.7949804539        6.2066076177
 H        -3.5054281355       -4.6945180866        3.7405163965
 H        -2.1364814375       -5.7433740555        3.8705729265
 H        -2.6752591090       -5.1332163782        5.4281887605
 H        -1.4443310648       -4.1770196699       -0.4560088313
 H         0.1765594292       -4.4306776865        0.2969614562
 H         0.0188381454       -0.9271751531       -4.3228525593
 H         0.6299792114       -2.5486780062       -3.8921017429
 H         0.3472241915        0.2565561460       -0.6762808674
 H         1.7738081737       -0.3766056473       -1.5327866380
 H         1.4778730057       -0.8228938763        0.1911320897
 H         2.0673121912       -2.4284249985       -2.1448725317
 H         1.9044692878       -3.1024144670       -0.6001017476
 H         1.0680643763       -3.8482391619       -2.1138263494
 H        -2.0313367479       -1.6243770921       -5.1401524259
 H        -1.0033877204       -2.8078968863       -5.4703811028
 H        -6.5419342086       -3.3698313444       -3.2512344987
 H        -5.0752859326       -3.1486893133       -2.1954142648
 H        -3.1757813510       -3.4476205188       -6.6845690145
 H        -4.5569642439       -4.3909269162       -6.5218364503
 H        -3.1951655657       -5.2380843694       -6.2833069716
 H        -3.4036302574       -5.9241205723       -3.6193378403
 H        -4.1479790356       -4.9425409210       -2.5778775580
 H        -5.0888093829       -5.5640868232       -4.0128100593
 H        -7.1247422202       -1.3851318601       -2.3716081718
 H        -6.3559548481       -0.7993531604       -3.6982874905
 H        -3.2617935569        0.9108302188       -3.0727461517
 H        -4.2849224542        2.0262144305       -3.6464355457
 H        -6.9935486685        2.3793691717       -2.0124921016
 H        -7.6157013574        0.9351026254       -2.4896580107
 H        -6.3350638951        1.8303699370       -3.3753429396
 H        -7.3621318896        1.3187106330       -0.3246273331
 H        -6.8043870239       -0.3415353038       -0.0377277968
 H        -5.7357139976        0.9955641342        0.6359154067
 H        -2.1100780349        2.8319458282       -3.9180591135
 H        -3.0190379087        3.9124328258       -2.7386619973
 H        -0.5375553304        7.2870322257       -1.0650236915
 H         0.5906348048        6.6151985323        0.1560777500
 H         0.8627862846        6.4631375884       -1.5610035860
 H         1.4964123452        3.7536098112       -3.0941410891
 H         0.9266966367        2.6559093523       -1.9325727507
 H         1.7074532989        4.2608278182       -1.4914459017
 H        -0.8740318823        4.3891290088       -4.3168502590
 H        -1.6536280587        5.6367290329       -3.3410346267
 H        -0.0774114062        5.8231532713       -3.6838869412
 Na       -2.1844977045        0.3426426789       -0.3452235603
