155

 C         4.7717046688       -1.3623893283       -3.7966855039
 C         5.2521917756       -1.0532371669       -2.3997854241
 C         6.1369400197        0.1750115303       -2.0361266488
 C         5.1430895336        0.8875088849       -1.0145142089
 C         5.1992536409        0.4626000654        0.5104750928
 C         7.4446100650       -0.1448738605       -1.3403871875
 C         6.4211887935        1.1672795861       -3.2654693300
 O         4.8253782067       -1.7656649913       -1.5306819981
 O         4.3275180444        1.6742147641       -1.3928948241
 C         4.5059400023        1.5301623797        1.4915050212
 C         4.2537804476        0.9944677239        2.9151965912
 C         4.3188691368        2.1759799483        4.0792075418
 C         3.0518952190        3.0837295341        3.7666754197
 C         1.6712039689        2.4608912997        4.3166576713
 O         3.9369806104       -0.1652256083        3.1514723859
 O         3.0547776839        3.9304038084        2.9117028495
 C         4.0825530632        1.5819422268        5.4936976832
 C         5.5734987303        3.0760890398        4.0204269582
 C         0.3720810119        3.0198069525        3.7582029770
 C        -0.7948762810        2.2006256513        4.4799963075
 C        -2.2577653561        2.2028795561        3.8146540366
 C        -2.3046516672        0.8508139287        3.0014216094
 C        -2.4799462790       -0.3975849786        3.9223337278
 C        -3.3356969635        2.0593007389        4.9646655336
 C        -2.5106514614        3.5183297802        3.0485646295
 O        -0.5410354161        1.5808148026        5.5016496999
 O        -2.1153968514        0.7472119458        1.8047278695
 C        -2.0669949491       -1.5903663147        3.0304551406
 C        -2.6032070965       -3.0141692076        3.4220954522
 C        -1.6093660624       -4.2410052580        3.8193468739
 C        -0.6746230081       -4.2797869240        2.6254902417
 C        -1.2267061376       -4.7600219660        1.2865031041
 O        -3.7857788508       -3.2166496267        3.3703090508
 O         0.4828572572       -4.0074880356        2.8127574106
 C        -0.9264423655       -4.0423601633        5.1477512124
 C        -2.4987918086       -5.5070337545        4.0787205654
 C        -0.3708431675       -4.2394487331        0.0658931057
 C        -0.4198025826       -2.6862015659       -0.2646733804
 C         0.9361795610       -1.9895443523       -0.8893758191
 C         0.4155534288       -1.4996366391       -2.2745814984
 C         0.7954039017       -2.3976560307       -3.5261490356
 C         1.3501508855       -0.7364885240       -0.0630212137
 C         2.1457101844       -2.9021421888       -0.9984280995
 O        -1.4102471374       -2.0456918244       -0.0881535006
 O        -0.4227164060       -0.5565308736       -2.2916155584
 C        -0.4833148101       -2.7644449358       -4.4601885494
 C        -1.5056093145       -3.7083646059       -3.7377958916
 C        -2.8859480907       -3.7711399121       -4.4429765175
 C        -3.6869393258       -2.5476407142       -3.7271797294
 C        -4.3804297468       -2.7960188139       -2.3751001113
 O        -1.2792495858       -4.6063219074       -2.9211049145
 O        -3.7578069228       -1.4806905511       -4.2452808475
 C        -2.9287821809       -3.6469033551       -6.0081505654
 C        -3.5989925494       -5.1098067631       -4.0534653675
 C        -5.1809555211       -1.6226892104       -1.8431017611
 C        -4.5118532046       -0.2191371707       -2.0377271311
 C        -5.5993268634        0.9723809914       -2.6342974560
 C        -4.9376167007        2.3884272055       -2.7395099437
 C        -3.8689498817        2.6062002894       -3.7751327258
 C        -6.1765544120        0.5201693151       -3.9539442595
 C        -6.7681336107        1.1580403834       -1.6335883764
 O        -3.3373979782       -0.0026758368       -1.9325442403
 O        -5.3046309620        3.2914069980       -1.9971865092
 C        -2.9700329373        3.7707240439       -3.3288270133
 C        -1.7627982115        3.5524235850       -2.3774263094
 C        -0.8013320210        4.5879733622       -1.8713668861
 C        -1.4281979560        5.0631514754       -0.5053734025
 C        -1.0268724036        6.4803471568       -0.1558920088
 O        -1.5651708283        2.4219400466       -1.9149858466
 O        -2.1322112071        4.3885589121        0.2262604111
 C         0.6418428165        4.0267748917       -1.5301739608
 C        -0.5288017280        5.7362629825       -2.7951820246
 H         3.8987115625       -1.9611460580       -3.8744899712
 H         4.5573271053       -0.4782299289       -4.4262496549
 H         5.5464468123       -1.8637848783       -4.2944735850
 H         4.6164984740       -0.5085731780        0.6007014601
 H         6.2054432011        0.3146728317        0.8643119945
 H         7.9425806644       -0.9245916803       -1.8135402602
 H         7.3100593450       -0.3920985688       -0.3350435430
 H         7.9612632992        0.7485132749       -1.4253994824
 H         5.5336464881        1.7256307418       -3.5284465700
 H         7.0960552186        1.9354221235       -2.9039968312
 H         6.8605884867        0.7218801781       -4.1449881162
 H         5.1032188536        2.4790064817        1.5640071065
 H         3.5281773025        1.6171516482        0.9956231521
 H         1.7090744470        1.3767466784        4.0682670894
 H         1.7210793176        2.5074312658        5.3813326996
 H         3.7959327783        2.4222076830        6.2263158238
 H         5.0310097291        1.1998892492        5.7962005828
 H         3.3257716870        0.7770803057        5.4855722874
 H         5.2997271677        4.0657595135        4.4783027331
 H         6.4372746700        2.6812120845        4.5460296601
 H         5.6788594886        3.4001006377        2.9637065246
 H         0.3005583223        3.0561409415        2.5964849499
 H         0.1524914110        3.9613040945        4.2101356013
 H        -1.7455791629       -0.3576020564        4.7809051888
 H        -3.4959034784       -0.3656387970        4.3056810712
 H        -3.4121716495        3.1102413765        5.3442496944
 H        -2.8511518557        1.6693476953        5.8920419228
 H        -4.3820151402        1.7031332514        4.6139976075
 H        -3.5582043017        3.8290730961        2.9638220691
 H        -2.0636375169        4.3041604572        3.6017957831
 H        -2.0487905088        3.4692510329        2.0613990940
 H        -2.4206233990       -1.3391628322        2.0011244355
 H        -0.9179236651       -1.5936089211        3.0040272170
 H        -1.3251748682       -5.8236820131        1.2525548922
 H        -2.2221592095       -4.1302415425        1.2973763690
 H        -0.2075886158       -4.7833313703        5.4375708641
 H        -1.7197457508       -4.0362038069        5.8861723634
 H        -0.5642520518       -3.0939328350        5.2595618311
 H        -3.2055851410       -5.3684209559        3.2659535026
 H        -1.9879190972       -6.4406883158        3.6746196946
 H        -2.7598657965       -5.6143018057        5.0998844286
 H        -0.7108702439       -4.9024923592       -0.7261448187
 H         0.6817843867       -4.3871335350        0.3027222143
 H         1.5411072472       -1.8531961889       -4.0478700808
 H         1.3481229493       -3.2835159399       -3.2494167233
 H         0.6716955878        0.1415802716       -0.2277290407
 H         2.3604741967       -0.3618601927       -0.3000081266
 H         1.4093962361       -0.9933191455        1.0174289446
 H         2.8386363875       -2.6536385335       -1.7863376505
 H         2.7165684930       -2.9499810352       -0.1123573379
 H         1.8812184174       -3.9481057524       -1.2164290286
 H        -1.0886945601       -1.8698265741       -4.7849992536
 H        -0.1376833562       -3.3923974702       -5.2244785547
 H        -5.0145511505       -3.6449908632       -2.3689477899
 H        -3.5454394000       -3.0406478172       -1.6697344259
 H        -2.8845428230       -2.6136374868       -6.3796294013
 H        -3.8880605210       -4.0272864194       -6.4413890642
 H        -2.2057486687       -4.3449700035       -6.4743343954
 H        -2.7948013811       -5.8785663907       -3.9953383406
 H        -3.9566408954       -5.1794972479       -2.9999133093
 H        -4.4160997210       -5.3318622333       -4.7478084586
 H        -5.2231283001       -1.7615248562       -0.6672064558
 H        -6.2446855279       -1.6269876153       -2.2391822922
 H        -3.2291990038        1.6894966554       -3.8049483663
 H        -4.1645077457        2.8326834203       -4.8120430991
 H        -6.8961665506        1.2468493742       -4.2930156230
 H        -6.5205999432       -0.4695149284       -3.8890296101
 H        -5.3824790217        0.6670749813       -4.6275582340
 H        -7.5340105589        1.7521271413       -2.1430662335
 H        -7.1579836277        0.1426735307       -1.4505206560
 H        -6.3128967439        1.5599701582       -0.7009533106
 H        -2.5149734507        4.2201507550       -4.2071046310
 H        -3.7187897535        4.5559694056       -2.9369794649
 H         0.0090908869        6.5420506101       -0.3454293511
 H        -1.5615941811        7.0982032983       -0.8207973172
 H        -1.3248238425        6.7778425844        0.8786976527
 H         1.3867490222        4.0636669536       -2.3808238270
 H         0.6842726218        3.0317680272       -1.2187846704
 H         0.9845406997        4.7733411877       -0.8355617265
 H        -0.1318629770        5.2813053943       -3.7181118692
 H        -1.4592405491        6.1651807998       -3.0870101035
 H         0.0723450275        6.5165400529       -2.4054586682
 Na       -1.8000390983        0.4907328986       -0.6156293512
