155

 C         4.6587793804       -0.8717585802       -3.7757518368
 C         5.3102571793       -0.7984988873       -2.4129275292
 C         6.0763475309        0.5119799743       -1.9733094418
 C         5.2030898251        1.1319700203       -0.8276694916
 C         5.3655755691        0.6420909117        0.5917172730
 C         7.4142716707        0.0139525095       -1.4134279257
 C         6.2719512141        1.4425037229       -3.1998659267
 O         5.3292807258       -1.7581059054       -1.6632071476
 O         4.4230228388        2.0286182954       -1.0617215839
 C         4.6250390488        1.4879855094        1.5531036461
 C         4.5746807744        1.1182253793        3.0951705166
 C         3.9743047761        2.2501066326        4.1580683055
 C         2.4642631994        2.7830256417        3.5880367005
 C         1.2361555438        2.5987785846        4.5029201389
 O         4.7514626958        0.0071876551        3.5582259736
 O         2.3551647544        3.0902092927        2.4024757714
 C         3.9744952404        1.6080732337        5.5419715381
 C         4.9773503862        3.4635496667        4.0005956430
 C        -0.0307530578        2.7692203703        3.7596863359
 C        -1.3235225154        2.1673557261        4.4545338108
 C        -2.6181449731        2.0600117749        3.5076592406
 C        -2.2993148985        0.7230527616        2.7297128761
 C        -2.8003596466       -0.4858607693        3.5016716211
 C        -3.8979250412        2.0732636104        4.4123024532
 C        -2.7803695587        3.2798258758        2.5439848895
 O        -1.4016771623        1.8505208974        5.5856088224
 O        -1.6392551941        0.7228290290        1.6809750818
 C        -1.9917250931       -1.7676653798        3.1408611888
 C        -2.7083461637       -3.0232908863        3.6625796464
 C        -1.9103475405       -4.3993061463        3.5347509817
 C        -0.8608498124       -4.3272315519        2.4186337728
 C        -1.2353390850       -4.9337850407        0.9395738270
 O        -3.8634902153       -3.0333058719        4.0496982465
 O         0.2563849137       -3.8705747121        2.5925501069
 C        -0.9198747054       -4.4490718987        4.8478667357
 C        -2.9946003381       -5.5435613562        3.4260490248
 C         0.0149115164       -4.5792847171        0.0458607564
 C         0.0761947855       -3.1219913902       -0.2294845287
 C         1.3901770924       -2.3684551733       -0.7332395475
 C         0.7980305456       -1.6523660907       -2.0099041909
 C         1.0191494322       -2.4820085027       -3.3711709812
 C         1.7943108507       -1.2289700861        0.1878300854
 C         2.5613060997       -3.3077077426       -0.9087365586
 O        -0.9936664377       -2.4263114765       -0.1618433392
 O         0.3381837032       -0.5359872671       -2.0209530519
 C        -0.1691982642       -2.5190750653       -4.3402812925
 C        -1.2501172211       -3.5655252250       -3.8245155203
 C        -2.6704330106       -3.6376124825       -4.3346156640
 C        -3.4446800408       -2.3534798265       -3.7010211543
 C        -3.6932547430       -2.4025373933       -2.1856666962
 O        -0.9576265754       -4.4015488438       -2.9671183554
 O        -3.6840796800       -1.3906412218       -4.4341890429
 C        -2.7683227179       -3.3251989488       -5.8682882074
 C        -3.3935895535       -5.0225918512       -4.0506545152
 C        -4.8712354625       -1.6072561763       -1.7565712280
 C        -4.7582311824       -0.1094526155       -2.0309630964
 C        -5.7208208076        0.7512623169       -2.9186353932
 C        -5.1256659881        2.2380655769       -2.9509352922
 C        -3.6367657829        2.4016353541       -3.4211059133
 C        -5.9056607254        0.2893031218       -4.3102759823
 C        -7.1045381033        0.8305262730       -2.0282978466
 O        -3.9477480122        0.4813149703       -1.3327782495
 O        -5.8526754138        3.1804507564       -2.9401785441
 C        -3.0887788598        3.6364519988       -2.6577689947
 C        -1.7618374776        3.4660079786       -1.8433719497
 C        -0.7760608796        4.6863150052       -1.5627670348
 C        -1.4223074811        5.5687373580       -0.4664893706
 C        -0.7279195544        6.9547051363       -0.1779419877
 O        -1.3936643845        2.3510319047       -1.4696167168
 O        -2.5029006216        5.2174326709       -0.0027883810
 C         0.5667424090        4.1022078906       -0.9772288632
 C        -0.7109071483        5.3658081284       -2.9148890494
 H         4.4306169961       -1.8100375196       -4.1078886352
 H         3.6936628130       -0.2562760249       -3.8539820142
 H         5.2912775392       -0.3589603047       -4.5388143552
 H         5.0160764494       -0.4410015300        0.6833128345
 H         6.4439311599        0.5425891850        0.8234660866
 H         7.9543152278       -0.5494316274       -2.1567243839
 H         7.1426000579       -0.4905842916       -0.5161160785
 H         7.9545884736        0.9157935362       -1.0869956828
 H         5.3499186120        1.8426939104       -3.5597436746
 H         6.8768812295        2.2324004289       -2.7559015040
 H         6.7977981469        1.0365581913       -4.0530230809
 H         5.1222592185        2.4609630289        1.5060066768
 H         3.5865764050        1.7375180800        1.2906891809
 H         1.3312501906        1.5881856069        4.9412177110
 H         1.4963134557        3.2691670521        5.3749483806
 H         3.5927983889        2.2770219512        6.2783695855
 H         5.0377595159        1.3846156946        5.8068388872
 H         3.4789383458        0.7335195670        5.6362876618
 H         4.8175103644        4.1797260523        4.7700104996
 H         6.0007112492        3.0157628334        4.0266907654
 H         4.9649720833        3.8830126575        3.0078523652
 H         0.0955542915        2.1976307567        2.8272477574
 H        -0.2763212640        3.8510368267        3.5671651461
 H        -2.6425379860       -0.2796283243        4.5458024560
 H        -3.8631346175       -0.7584203336        3.2527163725
 H        -3.7378264629        2.8919268788        5.0701072911
 H        -4.0261486487        1.0843516677        4.9223602202
 H        -4.8164783149        2.2667206194        3.7512215762
 H        -3.7391842624        3.4433983882        2.1490119436
 H        -2.4239366194        4.1647307691        3.0149545981
 H        -2.1113092525        3.1873981858        1.7266421470
 H        -1.8058010099       -1.8845636069        2.0444023688
 H        -0.9966867988       -1.7371377944        3.5213331615
 H        -1.2648836008       -6.0071325692        1.1413013591
 H        -2.0739970862       -4.4284810887        0.6116828040
 H        -0.4110377709       -5.3984792293        5.0554290421
 H        -1.4515211243       -4.2149065993        5.8443665571
 H        -0.1025695731       -3.7816712856        4.6450724778
 H        -2.9556868380       -6.2465143126        2.5731120247
 H        -3.0447494481       -5.9659947903        4.4308245015
 H        -3.8552737028       -4.9196831957        3.3475574221
 H        -0.2457769392       -5.1044504682       -0.8725237899
 H         1.0164269983       -4.9568291049        0.3095184300
 H         1.8863246588       -1.9609040023       -3.8912333651
 H         1.4186337773       -3.4210443489       -3.0689856692
 H         0.9455131608       -0.6169514202        0.4495707866
 H         2.5232168058       -0.5866289904       -0.3025895662
 H         2.1292269769       -1.5269244958        1.2073043509
 H         3.4783832741       -2.8063895840       -1.4006073866
 H         2.8265587660       -3.6406199018        0.0953346855
 H         2.3556709036       -4.1864237492       -1.4153213516
 H        -0.5046804662       -1.4982510136       -4.4341529486
 H         0.2344278510       -2.8601226629       -5.3262062925
 H        -3.9194341837       -3.4889023965       -1.9238136221
 H        -2.7619111395       -2.0042091470       -1.7957408224
 H        -2.0804152410       -2.5688078355       -6.2271942115
 H        -3.8386838267       -3.1323439942       -6.1249112919
 H        -2.4684356149       -4.2283137344       -6.3179361646
 H        -4.4085823928       -4.9580640576       -4.2711557659
 H        -2.8196799747       -5.8376147242       -4.5183983594
 H        -3.2874029633       -5.1179473330       -2.9441764825
 H        -5.0407115698       -1.6803572020       -0.7079791656
 H        -5.7976893022       -2.0023964266       -2.1827034583
 H        -2.9372668783        1.5810795086       -3.4809944561
 H        -3.6733795943        2.7146045890       -4.4821516940
 H        -6.7591913508        0.8176519732       -4.8136812705
 H        -6.1760895727       -0.7903270933       -4.2794583051
 H        -4.9763765259        0.2975003937       -4.8811829506
 H        -7.5171721879        1.7532878017       -2.1128410034
 H        -7.7332623643       -0.0049933461       -2.4126555496
 H        -6.9379937457        0.6650490334       -0.9497689460
 H        -2.9443056224        4.4694736242       -3.4514665300
 H        -3.8113282932        3.9067939626       -1.8742446720
 H        -0.4002820080        7.3390355481       -1.1284497715
 H        -1.3985003940        7.7097565738        0.2172022351
 H         0.1584205610        6.7976578217        0.3492072008
 H         0.9103129582        3.3304554192       -1.6475958840
 H         0.6080698303        3.8575256535        0.0852441518
 H         1.2971722220        4.8875810992       -1.1047967919
 H        -0.6811320982        4.6268370739       -3.6656167118
 H        -1.6206391109        5.9302815995       -3.0533273689
 H         0.1795756290        5.9737766943       -3.0499739422
 Na       -1.7965133690        0.0550658421       -0.5836091833
