155

 C         4.6606436543       -0.3458745279       -3.6232266782
 C         5.5570703998       -0.5090247873       -2.3758656482
 C         6.4113531111        0.7016904865       -1.8885009086
 C         5.3735950445        1.2386458864       -0.8346131436
 C         5.5370748131        0.9579143991        0.6306176397
 C         7.8018968735        0.3156170376       -1.2190597878
 C         6.5795472193        1.7271028581       -2.9770600138
 O         5.5610346540       -1.5518276049       -1.7595755779
 O         4.4296989521        1.8882292573       -1.1450109934
 C         4.5674900353        1.8109111070        1.4442941357
 C         4.5140963688        1.4029166524        2.9326271665
 C         3.7054384043        2.2738357087        3.9686554947
 C         2.2135494573        2.3365812445        3.5154046931
 C         1.0210551249        1.9746889025        4.4924237998
 O         5.1005101044        0.4430284750        3.3808608602
 O         2.0390283459        2.8018520328        2.4231066145
 C         3.8916566906        1.5623397625        5.3181159315
 C         4.1776961127        3.7557552911        4.0871642694
 C        -0.1778055634        2.7513599755        4.0027283454
 C        -1.5801166647        2.1857761822        4.3082826914
 C        -2.7373008571        2.0419769201        3.2778193008
 C        -2.5354567856        0.6522470625        2.6187000854
 C        -2.9862268232       -0.5002107968        3.4881053428
 C        -4.0653393050        2.2085849319        4.0640823802
 C        -2.5752029430        3.1799876929        2.1955808827
 O        -1.7566121873        2.0146110406        5.5254360595
 O        -1.8688160171        0.5596964300        1.5778046830
 C        -2.1422390948       -1.8345389539        3.3189910040
 C        -2.8296782284       -3.1700305404        3.7350104319
 C        -1.9503101532       -4.4567733142        3.5981412320
 C        -0.8221073616       -4.2913729437        2.5798298815
 C        -1.0495363442       -5.1729154701        1.1210017829
 O        -3.9619861922       -3.2407038550        4.1761692566
 O         0.0583762185       -3.4778598542        2.7492068939
 C        -1.4524046031       -4.7384351505        4.9929802619
 C        -3.0138230394       -5.5859933475        3.1868562006
 C        -0.1414569712       -4.7557166143        0.0486305902
 C        -0.1169110810       -3.3141084556       -0.3208784907
 C         1.1802769984       -2.6135222674       -0.8891687044
 C         0.7053599586       -1.7167865175       -2.0849457788
 C         1.1394800088       -2.1954338238       -3.4781147810
 C         1.8262484287       -1.6086992090        0.1892257827
 C         2.2878252496       -3.6414432576       -1.1936504507
 O        -1.1847389091       -2.6535501316       -0.1389899668
 O         0.0137659621       -0.7415319517       -1.9440437384
 C        -0.0701728450       -2.3457434916       -4.4089850030
 C        -0.9734210481       -3.4909631261       -3.9093366399
 C        -2.3988334876       -3.5018956872       -4.5537391520
 C        -3.0188922918       -2.2657102098       -3.7415984527
 C        -3.5920012837       -2.3874026506       -2.2376147049
 O        -0.5858689943       -4.2102778696       -2.9737894662
 O        -2.8797721750       -1.1987878168       -4.2750724358
 C        -2.3395517088       -3.2172877064       -6.0233135298
 C        -3.0412757208       -4.8923888491       -4.1150277407
 C        -4.9643467402       -1.8082554602       -2.0469497861
 C        -4.9185024930       -0.2441556530       -1.8282024531
 C        -5.7573686601        0.7853121866       -2.7158415778
 C        -5.1072157039        2.2435941463       -2.8886024435
 C        -3.6294851418        2.4606489835       -3.0298751099
 C        -5.8944655810        0.2384785313       -4.1906098310
 C        -7.1458233080        0.9049425038       -2.0730631545
 O        -4.0584257604        0.1632984577       -1.1021911569
 O        -5.9525956324        3.1160609226       -3.0740234997
 C        -3.1793866360        3.3615724023       -1.8439285660
 C        -1.7185791203        3.2379078788       -1.4162411872
 C        -0.7481805204        4.4938885091       -1.3521894157
 C        -1.4309887415        5.7856151015       -0.7242036362
 C        -0.7120579141        7.0201220469       -0.3320947050
 O        -1.1364371531        2.1557388518       -1.2190360551
 O        -2.6407735075        5.8247142748       -0.6940146954
 C         0.6092846532        4.1107383338       -0.7398963580
 C        -0.5187808561        5.0387262904       -2.8697289223
 H         4.9201325977       -0.8469739195       -4.5177067851
 H         3.6576613748       -0.7362841966       -3.4318953832
 H         4.5025368593        0.6591094677       -3.9070263063
 H         5.1711506306       -0.1531235294        0.6176097726
 H         6.5878243195        0.8153417566        0.8783013473
 H         8.4128788713        0.2043481568       -2.0494032729
 H         7.6380511201       -0.6513837177       -0.8547273665
 H         8.2278180610        0.9860340656       -0.5694495350
 H         5.6210064086        1.9935525111       -3.3659420791
 H         7.0743974779        2.6562361422       -2.6695585104
 H         7.1588581137        1.2541896713       -3.7639330729
 H         4.8854988663        2.8582002807        1.4161642606
 H         3.5903416102        1.9717614124        0.9549874068
 H         0.9813226729        0.8905839358        4.5204393442
 H         1.3969579714        2.3824938045        5.4567087260
 H         3.3945716481        2.1285729036        6.1317350909
 H         4.8024642251        1.4673328191        5.6260868562
 H         3.4736595321        0.5704558226        5.3620400031
 H         3.5640337149        4.2709174762        4.8822259530
 H         5.2900308817        3.9386067731        4.2765539174
 H         3.8940401997        4.2254065558        3.0934615346
 H        -0.1383404939        2.7928546598        2.8614834956
 H        -0.1502592163        3.8379585964        4.2708560472
 H        -2.9109894231       -0.0994510280        4.4821320389
 H        -4.0399978286       -0.7841735624        3.2355456600
 H        -4.4723967968        3.0585663576        3.4552674842
 H        -3.9440854295        2.2232440938        5.1651400058
 H        -4.7615950411        1.3082551495        3.8770772504
 H        -3.3816593042        3.1267116081        1.4390335525
 H        -2.6588358236        4.2093258503        2.5436778517
 H        -1.5765054653        3.1227424125        1.6814066426
 H        -1.8171217695       -1.9815472906        2.2169618473
 H        -1.2103266058       -1.6232003718        3.8278007487
 H        -1.0027201625       -6.2193665466        1.4054685972
 H        -2.0703642059       -4.8735569444        1.0126799027
 H        -0.9572041365       -5.6775173432        4.9034025928
 H        -2.2144826910       -4.8172352242        5.7520936912
 H        -0.7411218840       -4.0672606687        5.2972858084
 H        -3.0076905842       -6.4390095360        3.9472968318
 H        -3.9689088066       -5.0419907875        3.4911094672
 H        -2.8434406022       -6.1228217118        2.3170040110
 H        -0.3375540195       -5.3179177976       -0.8594446063
 H         0.9102027284       -5.0776547051        0.2000920930
 H         1.8777621928       -1.4079569269       -3.7689443116
 H         1.6438532720       -3.1046873650       -3.4633286991
 H         1.3864070197       -0.6050999495        0.0724624149
 H         2.8920581135       -1.4630202512        0.0552981345
 H         1.6575706411       -1.8117359091        1.2864065302
 H         3.1401767144       -3.1451076214       -1.7046615639
 H         2.7557631908       -3.8402443006       -0.2785073920
 H         1.9940906682       -4.5324980289       -1.6810696670
 H        -0.6676270950       -1.4950769828       -4.7286730056
 H         0.4100399939       -2.6907635786       -5.3338074997
 H        -3.5776932352       -3.4305468197       -1.9389477132
 H        -3.0017684932       -1.6625119219       -1.7309215130
 H        -2.1596685383       -2.1345568703       -6.1823002149
 H        -3.3835735650       -3.5650346441       -6.3413458785
 H        -1.4890421811       -3.7252776936       -6.4886140274
 H        -4.0537253261       -4.5885765140       -4.0135358488
 H        -2.8911249338       -5.7065896745       -4.8357645488
 H        -2.5733759974       -5.2407935188       -3.1559738186
 H        -5.4642637145       -2.2146810954       -1.1290363000
 H        -5.7324280992       -1.9494648087       -2.8244066845
 H        -3.1373436864        1.5002979944       -2.9476876087
 H        -3.3590701797        2.7873783684       -4.0658433455
 H        -6.4284794347        0.9345866274       -4.7790637854
 H        -6.5164071391       -0.5688586123       -4.2990585855
 H        -4.9653252588       -0.0027265995       -4.5734233020
 H        -7.9559657305        1.1532871007       -2.7401901329
 H        -7.4072340865        0.0222012697       -1.4005614027
 H        -7.0756552055        1.7950638436       -1.3939169481
 H        -3.4047004451        4.4755904647       -2.0980694587
 H        -3.8113363004        2.8751498024       -1.0975242409
 H        -0.4873624805        7.5394006977       -1.2637920238
 H        -1.4859736817        7.6733043797        0.0790009851
 H         0.2140130352        6.9133155691        0.2445548437
 H         1.0617201499        3.1494048420       -1.1616311167
 H         0.4718450171        3.9578813110        0.3311495029
 H         1.3488413731        4.9136939680       -0.7310870483
 H        -0.1844064117        4.1885121506       -3.4692941342
 H        -1.4352156948        5.5508694232       -3.2264854822
 H         0.3184629148        5.7843222312       -2.9402877828
 Na       -1.3656438695       -0.0301451487       -0.5168953335
