155

 C         4.7614602609       -0.1751421058       -3.5946588529
 C         5.7116018822       -0.3850371898       -2.4076487329
 C         6.4283651985        0.8298427308       -1.7906777007
 C         5.3901883440        1.5101926436       -0.8591135889
 C         5.6299641716        1.3979568158        0.6389672165
 C         7.6707459124        0.2586253427       -1.0030594005
 C         6.9114388055        1.8403596691       -2.8584251970
 O         5.7779949211       -1.4694969955       -1.8603645135
 O         4.3359179627        2.0159165645       -1.2572947444
 C         4.7310027709        2.1557915887        1.4962686599
 C         4.6451195648        1.4757670716        2.9256645416
 C         3.6685126994        2.2398540041        3.9389503471
 C         2.1261435409        2.1871935809        3.3866866452
 C         0.7906691549        1.8464579784        4.2953397156
 O         5.3144912309        0.5231650748        3.2861856659
 O         1.9724769624        2.5882939029        2.2406465347
 C         3.7667267143        1.5884778843        5.3769600793
 C         4.2023301046        3.7084507472        4.0458264546
 C        -0.4221218852        2.7440728473        3.9427775023
 C        -1.7502108163        2.2598926776        4.4329284217
 C        -2.8831650039        2.0871265018        3.2344352308
 C        -2.6475970294        0.6322440610        2.7809263334
 C        -3.1102626169       -0.5501735892        3.6321171924
 C        -4.3005386763        2.2506911127        3.7711131208
 C        -2.7316299395        2.9805278690        2.0459798022
 O        -2.0020512339        1.8013144849        5.4887450766
 O        -1.9984690517        0.3745751632        1.7789086253
 C        -2.3055988040       -1.8342465029        3.2949244693
 C        -2.9852548671       -3.0388425001        3.7308364762
 C        -2.1975437894       -4.4499650547        3.5695066020
 C        -1.0166568186       -4.4510023929        2.5107589061
 C        -1.1856072934       -5.2583488010        1.1150239748
 O        -4.1211059819       -2.9763870606        4.1462472579
 O        -0.0105457382       -3.8573638632        2.7230613289
 C        -1.3300201727       -4.5728352599        4.8904998167
 C        -3.1679504892       -5.6019113568        3.4172232804
 C        -0.0056362238       -4.7161999500        0.2520549542
 C        -0.1116082260       -3.2565827551       -0.3219323512
 C         1.1607803032       -2.5960525714       -0.8887953432
 C         0.8021732825       -1.7549256590       -2.1939182225
 C         1.3536758017       -1.9798901175       -3.6160641741
 C         1.6675305933       -1.6426139010        0.1441086085
 C         2.2986266838       -3.6881251023       -1.2907751416
 O        -1.0764071652       -2.6033430141       -0.1376260730
 O        -0.0682356203       -0.8942053904       -2.0833250925
 C         0.2442000206       -2.3890405192       -4.6040567826
 C        -0.7758025328       -3.3155422832       -3.9622596564
 C        -2.2475921246       -3.4271859416       -4.5343849703
 C        -2.8653069479       -2.2855329988       -3.6679517851
 C        -3.5514269799       -2.6008732062       -2.3855258597
 O        -0.4697989870       -4.0103737296       -3.0110348011
 O        -2.7173514455       -1.1162646429       -4.0291196422
 C        -2.5833681267       -3.1768992928       -6.0389036219
 C        -2.8839457175       -4.8663404846       -4.2340870014
 C        -4.8555570155       -1.7756770270       -2.3117020023
 C        -4.7307279548       -0.2799393389       -1.9277677763
 C        -5.6354974713        0.7007137284       -2.6781316111
 C        -5.1014179316        2.2044874002       -2.8238620598
 C        -3.4866842688        2.3535794226       -2.7183382348
 C        -5.8730316635        0.2674804576       -4.1688339864
 C        -7.0733044011        0.7487859230       -1.8948886671
 O        -3.8735739856        0.1359885234       -1.1085659531
 O        -5.8044975997        3.1288751392       -3.0647717562
 C        -3.2093270210        3.2027576059       -1.4402818327
 C        -1.6436365111        3.1996622162       -1.2123932673
 C        -0.8473156291        4.4913529638       -1.4147221678
 C        -1.5095012432        5.7788960342       -0.9102413333
 C        -0.5192332140        6.8538959673       -0.4194164057
 O        -1.0244029912        2.1742602872       -1.1027167136
 O        -2.7081558938        5.9956163258       -0.7498656034
 C         0.5394367009        4.3168643358       -0.5769879207
 C        -0.4661900193        4.6430263864       -2.9694874940
 H         5.2795221298        0.1982555479       -4.4903009839
 H         4.2753071395       -1.0739221275       -4.0122034170
 H         4.0036498981        0.6628990974       -3.4299547326
 H         5.6257490628        0.4003485447        0.9464187725
 H         6.6909194454        1.6961528802        0.6867091116
 H         8.3660680137       -0.3079989331       -1.7007892224
 H         7.4274236527       -0.4864598952       -0.2030700643
 H         8.2182689597        1.2224484583       -0.6919692466
 H         6.1256932199        2.5445079406       -3.1524984832
 H         7.6741588344        2.4805634104       -2.4608390116
 H         7.3539038606        1.2790007985       -3.6771422475
 H         4.8772891650        3.2491056761        1.5056385692
 H         3.7569626669        2.1466741218        1.0087840939
 H         0.5504215734        0.7755580282        4.0822306627
 H         1.0182564878        1.9951837239        5.3430687143
 H         3.1254357261        2.0497811017        6.1325037962
 H         4.7703891457        1.5871183939        5.9658884262
 H         3.4462296751        0.5643486285        5.3658053634
 H         3.9480416086        4.1528531119        4.9893003941
 H         5.2778508918        3.7281861111        4.0029654185
 H         3.7744648256        4.3017255111        3.2676306672
 H        -0.4629874494        3.0663965042        2.9507356154
 H        -0.3929286471        3.6889651184        4.4809126433
 H        -3.0247850311       -0.2048707044        4.7019702223
 H        -4.1506532290       -0.8131530313        3.4470363401
 H        -4.7227544358        3.1663141639        3.5251869378
 H        -4.1481761993        1.9477072597        4.8014805322
 H        -4.9153307306        1.4909029817        3.3394731723
 H        -3.6783988476        3.0989603158        1.5876709908
 H        -2.5224415458        3.9898011413        2.3595050410
 H        -2.0798152980        2.7187220374        1.2750174164
 H        -2.1530196334       -1.8864602598        2.2587631320
 H        -1.3110614685       -1.7173373886        3.7480207170
 H        -1.1605541282       -6.3606338763        1.3831592845
 H        -2.2287420237       -5.1071640714        0.7510185992
 H        -0.8663818125       -5.5841354976        5.0646120374
 H        -1.9917892882       -4.2799624839        5.7718867367
 H        -0.5233231417       -3.7603650126        4.9603031761
 H        -3.3623167881       -6.0541893016        4.3311890030
 H        -4.1092872516       -5.3104060550        3.1090781225
 H        -2.5692325205       -6.3736278234        2.8819634062
 H         0.1837630031       -5.3265166024       -0.6614277164
 H         0.9391899581       -4.9280287734        0.7198174283
 H         1.8477936088       -1.0904753702       -4.0076387199
 H         2.1134518637       -2.7939249567       -3.3681951636
 H         0.8852475336       -1.0405508042        0.6025086743
 H         2.4755265842       -0.9532009412       -0.1792373097
 H         2.1013151746       -2.1995676746        0.9648495892
 H         3.2750031287       -3.2720374111       -1.5259990172
 H         2.5689274399       -4.3134569086       -0.3859006294
 H         1.8817519077       -4.3501550589       -2.0505594567
 H        -0.1580252057       -1.4409338061       -5.0297520168
 H         0.5923180338       -2.8878059765       -5.5355403372
 H        -3.9921054026       -3.5997541161       -2.5395278884
 H        -2.7187074575       -2.4531478411       -1.6423716702
 H        -2.0089060979       -2.3100732998       -6.3036061051
 H        -3.5962052318       -2.9478499933       -6.0990526194
 H        -2.2585620620       -4.0028234395       -6.6538542168
 H        -3.8425519357       -4.9672337127       -4.7663047723
 H        -2.1621957853       -5.5720293954       -4.6767865246
 H        -2.8480139353       -5.1132800760       -3.1981426223
 H        -5.5178936602       -2.2593831537       -1.6612564505
 H        -5.3289044884       -1.7504054834       -3.2873604315
 H        -2.9903961247        1.3754495505       -2.6217222796
 H        -3.0891029535        2.7883503220       -3.6329187230
 H        -6.3391214875        1.0834506554       -4.7544455949
 H        -6.6819230978       -0.5252645989       -4.3363424305
 H        -4.8932668703       -0.0547966492       -4.6464928209
 H        -7.7644161462        1.2156485530       -2.5734812912
 H        -7.4951622898       -0.2440789134       -1.7314643779
 H        -7.0768408214        1.2733616960       -0.9622336381
 H        -3.5891775773        4.1450142177       -1.6750737707
 H        -3.8226795903        2.6861068260       -0.6792370145
 H         0.2523843595        7.1600059596       -1.1188768728
 H        -1.0792600246        7.7105339897       -0.0724317135
 H        -0.0552750310        6.4194047357        0.4356280425
 H         0.8969219914        3.3792820830       -0.8610601995
 H         0.5064680463        4.2196251001        0.5278767694
 H         1.3067189903        5.0474593577       -0.8120214348
 H         0.4850440067        4.1833050095       -3.1325229098
 H        -1.2481060979        4.2360263726       -3.5698037087
 H        -0.4254972927        5.6573059698       -3.2445841417
 Na       -1.6901021032       -0.1766141144       -0.3492060270
