155

 C        -5.8545161137       -7.7075535465       -1.9856882937
 C        -5.6747915630       -7.6116089574       -0.4995088084
 C        -6.2084084861       -6.2465409795        0.1980404814
 C        -5.0107510550       -5.5745303446        0.9189910189
 C        -5.0847390085       -5.4400420422        2.5448579601
 C        -6.8771044070       -5.1602214611       -0.7078557818
 C        -7.2146284457       -6.9150998479        1.1313646357
 O        -5.0964734229       -8.4440995885        0.2065598019
 O        -4.0820930122       -5.0940988733        0.3115292055
 C        -3.9380466390       -4.6613046820        3.0711466814
 C        -4.3661054194       -3.2215200447        3.4959754258
 C        -2.9785385194       -2.2288552137        3.6262442103
 C        -2.2801370524       -2.2191553470        2.1763718804
 C        -2.9545461879       -1.7880203256        0.9238471398
 O        -5.4610217226       -2.7504832519        3.4817038098
 O        -1.0721717792       -2.4930525061        2.1067152198
 C        -3.4023668517       -0.7413392209        4.0479967084
 C        -1.9623334007       -2.8546631830        4.6248600653
 C        -2.2991557663       -2.3968886528       -0.3785204523
 C        -1.3181960350       -1.5513530610       -1.1264286991
 C        -0.3129262064       -2.3044477253       -2.0967868345
 C         0.1555719447       -1.4369066849       -3.2486151402
 C         0.6986358789       -2.0996155906       -4.5789922258
 C         0.9799128847       -2.5024199720       -1.0854443233
 C        -0.7851425293       -3.7145919025       -2.5858511842
 O        -1.2778144155       -0.3554924368       -0.9846277267
 O         0.1432289244       -0.2065681381       -3.2002728072
 C         0.7795186469       -1.0484447256       -5.7605998963
 C        -0.5145480342       -1.1733981097       -6.5712495819
 C        -0.8820190353       -0.0626356272       -7.6669096462
 C        -2.0650560728        0.9697197824       -7.1804997504
 C        -3.2641389447        0.4072778048       -6.3666446681
 O        -1.3173323042       -2.0328886065       -6.3638866366
 O        -1.8620060762        2.1311720294       -7.3752379020
 C         0.4099578863        0.7877098644       -8.0754558417
 C        -1.5061047668       -0.8499394998       -8.7708354056
 C        -4.0235605500        1.6616443691       -5.7172594212
 C        -3.1935102192        2.3165622001       -4.6143189852
 C        -3.5865134585        3.6948157054       -4.1562899858
 C        -3.0039067143        4.0004957823       -2.6946105497
 C        -2.4198322065        5.4702339218       -2.4386147669
 C        -2.9296101414        4.6752272729       -5.1621619573
 C        -5.2024978687        3.8008497161       -3.9864555143
 O        -2.2593678693        1.6983425157       -4.1561772085
 O        -2.9072382179        3.1525499321       -1.8463676096
 C        -1.1539570669        5.4005537920       -1.4613609549
 C         0.0003579171        4.4867312222       -1.8420743216
 C         1.1854195857        4.2472956275       -0.7016580389
 C         0.5539793402        3.5087976394        0.4553893125
 C         0.4978724547        3.9973038435        1.9375833003
 O         0.0562965220        3.8411239465       -2.8757080111
 O        -0.0213036852        2.4321188670        0.2423338754
 C         2.3772399044        3.3983633763       -1.2753268281
 C         1.8819076126        5.6174691729       -0.3351360663
 C         1.9496284106        3.9044970819        2.5595349806
 C         2.6225882883        2.4967186211        2.6161102627
 C         4.1654660474        2.3655327012        3.1349757891
 C         3.8716938862        1.8224784406        4.6928812894
 C         4.0017363745        0.2658988567        5.1528012372
 C         5.0043015502        1.4327703187        2.1930458059
 C         4.7306188924        3.7544947860        3.3702340445
 O         2.1071828567        1.5456108364        2.1203441675
 O         3.1569938327        2.5205487668        5.4349301340
 C         5.3487805129       -0.1464017446        5.9183295193
 C         6.5740393608        0.6961435101        5.5366404829
 C         7.7868371121        0.5018726644        6.4862175764
 C         8.0290703740        1.7594183003        7.4106165895
 C         8.0635045183        3.0669355601        6.7062696166
 O         6.6518381854        1.5433328427        4.6751301113
 O         8.3583423159        1.6027486399        8.5915993642
 C         7.7535101578       -0.8368724350        7.3062892294
 C         9.0705448492        0.4540542821        5.4576236469
 H        -5.6563350008       -6.6898778983       -2.3109530941
 H        -5.2158911303       -8.4661048711       -2.3839338206
 H        -6.8594615279       -8.0733271891       -2.2446862428
 H        -6.0082964181       -5.0228103542        2.9611675221
 H        -5.1529980047       -6.5121782085        2.8232691354
 H        -7.6680346935       -4.7691642837       -0.1003021433
 H        -7.3981274591       -5.5708569180       -1.5769457955
 H        -6.1770367181       -4.4076406674       -1.0888491883
 H        -6.7812670180       -7.2967866241        2.0307500514
 H        -7.9622175213       -6.2372671954        1.5225062553
 H        -7.7355039829       -7.6688720184        0.5180170215
 H        -3.5950861864       -5.0173406497        4.0164651177
 H        -2.9416763536       -4.6753361036        2.5436486849
 H        -4.0583205019       -1.9799010208        0.8978583185
 H        -2.8577139290       -0.6324329566        0.9894993389
 H        -2.6549369909       -0.1796869019        4.7158416380
 H        -4.2783431999       -0.6005986977        4.7903720147
 H        -3.5979988929       -0.2766621028        3.1108758650
 H        -1.0218872967       -2.8689424466        4.0905690585
 H        -1.8510594550       -2.2287280561        5.5481401596
 H        -2.2470106171       -3.8236888593        5.0350247061
 H        -3.0741756329       -2.8464232373       -1.1266141437
 H        -1.7155619958       -3.2168030241       -0.0515945005
 H         1.7647026062       -2.3894461002       -4.2892142516
 H         0.3105902322       -3.1079320556       -4.8422359933
 H         1.8205131051       -2.9763438031       -1.6987727038
 H         0.5972129961       -3.1108651585       -0.2962396263
 H         1.2271500274       -1.4382096992       -0.7823822886
 H        -1.1145952082       -4.3085940024       -1.7888900249
 H        -1.4857521465       -3.8203262459       -3.4106188278
 H         0.1059909022       -4.2214787767       -2.9727880108
 H         0.9493330559       -0.0555872934       -5.4611162696
 H         1.6306483856       -1.4356040477       -6.3824168401
 H        -3.8598790661       -0.3136058500       -6.8457115875
 H        -2.7170502901        0.0363502532       -5.4776222893
 H         0.8985323608        1.2918166628       -7.3071152528
 H         0.1439869159        1.5765527117       -8.7535016169
 H         1.0367057628        0.2325956558       -8.7207694647
 H        -2.2333500251       -0.2518319151       -9.3216626317
 H        -0.8913290828       -1.3050851075       -9.5737765181
 H        -2.1662249655       -1.5803288540       -8.3203073347
 H        -5.0627200358        1.4787793045       -5.3362059648
 H        -4.2142618946        2.3641944480       -6.5470232045
 H        -2.1689844995        5.9893914479       -3.3169143225
 H        -3.2163772376        6.0115762733       -1.8350088195
 H        -1.8717487139        4.6171039762       -4.9292079390
 H        -3.0792250472        5.7700770387       -4.9618749706
 H        -3.1301359949        4.5458740474       -6.1719403574
 H        -5.5057259052        4.3931211886       -3.1090989513
 H        -5.5477253077        4.2300941963       -4.9127282892
 H        -5.6169222388        2.8473949021       -3.7517740414
 H        -0.6076845464        6.3764134604       -1.2559723893
 H        -1.5246542640        5.0436555211       -0.4641422342
 H         0.3645367648        5.0677964307        2.0132325328
 H        -0.1833994670        3.3537427563        2.4764713160
 H         3.0237650612        4.0659203936       -1.8107197684
 H         1.9779863264        2.6822032459       -1.9650185943
 H         2.9931855919        2.9473650408       -0.5282256955
 H         2.8227309900        5.3621941336       -0.1227708142
 H         1.9729321868        6.3063397206       -1.1585293525
 H         1.4085756940        6.2335095863        0.3166218442
 H         1.7899500175        4.3783680605        3.5979017395
 H         2.6398728841        4.5473619647        2.0760872481
 H         3.1625904410        0.1135760491        5.7387950494
 H         3.8748096949       -0.4200486372        4.3976018918
 H         4.3996269278        0.5391646204        2.0784466961
 H         5.9800673842        1.1215753046        2.6555834901
 H         5.1396850865        1.7286098099        1.1344372142
 H         5.7704785159        3.6898533247        3.5522452964
 H         4.5651024952        4.4460376337        2.5839168460
 H         4.2339666343        4.0998651641        4.3246940525
 H         5.1873650284        0.1077477581        6.9361751254
 H         5.7042814303       -1.1650968523        5.7856955328
 H         8.5286623182        3.7905759961        7.3359596156
 H         8.7328223399        2.9027401797        5.8882797373
 H         7.1086459011        3.4226777056        6.3434509721
 H         8.6719021152       -0.9488759696        7.9545198705
 H         7.7059051600       -1.6790134126        6.5465210937
 H         6.8246843577       -0.9220919740        7.9175946790
 H        10.1123905848        0.6867798479        5.8044753769
 H         9.1832248728       -0.5715995575        5.1675665760
 H         8.9567736187        1.0587695965        4.5698276384
 Na       -1.0516419121        1.6767985465       -2.0519346308
