155

 C         4.9950076461        0.3635229601       -3.5728456731
 C         5.8826635436       -0.1235739810       -2.4545414547
 C         6.6862282027        0.9677735398       -1.6501281306
 C         5.7018474585        1.7140599659       -0.7044836175
 C         5.9087316902        1.9451447689        0.7707037110
 C         7.7681320598        0.2590021433       -0.8869929165
 C         7.3586362455        2.0092344821       -2.6102666284
 O         5.9605293346       -1.3059359893       -2.2273604770
 O         4.6714306586        2.1530610672       -1.1673733904
 C         4.6286588939        2.4906725197        1.4108650574
 C         4.3595922762        1.8221869819        2.7864477106
 C         3.3447451946        2.3889884386        3.9560847385
 C         1.8808918324        2.2665153584        3.2303326119
 C         0.7223197000        1.8837693661        4.1540698398
 O         4.9633608718        0.8441491150        3.1378395707
 O         1.6455524096        2.5280416518        2.0279800330
 C         3.4384397149        1.3912830081        5.1145864899
 C         3.2276346066        3.8558492010        4.4402935998
 C        -0.4706336302        2.7559748450        3.8439091689
 C        -1.7654531477        2.1571405267        4.3302354912
 C        -2.8890954063        1.9602895693        3.3116626577
 C        -2.7539878940        0.5260035093        2.6446391741
 C        -3.1353065826       -0.6297967745        3.4950839087
 C        -4.2817099638        2.0688435159        4.1930002795
 C        -2.9427327499        3.0695431649        2.2578595003
 O        -1.7795355343        1.7617515527        5.4818369838
 O        -2.1902776994        0.4378178324        1.5524824293
 C        -2.2857650608       -1.9135281226        3.2936678931
 C        -3.1562122164       -3.1906996367        3.6323350010
 C        -2.2358115816       -4.5784415726        3.7583003302
 C        -1.2070022471       -4.3695947601        2.6655769106
 C        -1.5274298678       -5.0019335405        1.2126118519
 O        -4.3708923223       -3.2074523372        3.6082726018
 O        -0.1093273134       -3.8946864134        2.9059229420
 C        -1.6459884038       -4.6473142291        5.1723386155
 C        -3.0725752948       -5.8779421000        3.4347881302
 C        -0.4389152907       -4.6025107026        0.1502267316
 C        -0.2819438339       -3.1044157055       -0.2216963846
 C         1.0436791045       -2.5731116249       -0.9180329819
 C         0.6979194142       -1.8178528356       -2.1751487382
 C         1.5085675662       -1.8673629739       -3.4360020089
 C         1.6068785538       -1.3997496755        0.0236219090
 C         2.1305207943       -3.6573854485       -1.0221667452
 O        -1.1590574358       -2.3360190647       -0.0722093962
 O        -0.2781024209       -1.0204603830       -2.2363533783
 C         0.3933400945       -2.1347516003       -4.4695026262
 C        -0.5116931026       -3.2869423295       -4.0391303943
 C        -2.0029782647       -3.3531300114       -4.5613425850
 C        -2.7982391546       -2.4053547160       -3.6245888678
 C        -3.6451063821       -2.8591032033       -2.4530824407
 O        -0.1986755854       -4.1252208814       -3.2296719482
 O        -2.9742035023       -1.2082579331       -3.8847921272
 C        -2.0808556722       -2.7659135390       -6.0157960529
 C        -2.5166591504       -4.7823498508       -4.5678871740
 C        -4.8756471489       -1.9645363572       -2.2538720725
 C        -4.6513116457       -0.4234975622       -2.1066378793
 C        -5.5815997683        0.5827007212       -2.6661537225
 C        -4.9549105337        2.0508228651       -2.7086241377
 C        -3.3377012775        2.2857154108       -2.7880346213
 C        -5.8596061390        0.3307780218       -4.2039069356
 C        -6.9005080363        0.6162804262       -1.9366555986
 O        -3.6662557615       -0.0802538856       -1.4101201637
 O        -5.6673074151        3.0494611163       -2.7139243623
 C        -2.9222855084        2.8183530494       -1.3776895715
 C        -1.4614738248        3.0025335801       -0.9762618796
 C        -0.5796708649        4.3001590211       -1.2362538463
 C        -1.3979960781        5.5527441024       -0.9180330366
 C        -0.5247801564        6.7718144318       -0.7174936649
 O        -0.9318583800        2.0396032959       -0.4571058361
 O        -2.6083360300        5.5808740346       -1.0417564231
 C         0.7396512659        4.0724729017       -0.5915773526
 C        -0.5259771695        4.3649571569       -2.8233771027
 H         4.8279026344        1.3629104184       -3.6384338526
 H         5.4109559434       -0.0124714683       -4.5376098856
 H         3.9406423011       -0.1044877236       -3.5576699395
 H         6.2318470612        1.0489026062        1.2621228614
 H         6.6588514058        2.7981469015        0.9392672274
 H         8.5994339738        0.0587791242       -1.5016436842
 H         7.4047417101       -0.6882992589       -0.5899585380
 H         8.1496686085        0.8006546940       -0.0432952465
 H         6.6472667448        2.6057582661       -3.1771808427
 H         8.0127797538        2.6618171746       -2.0686846769
 H         8.0082883619        1.4397854632       -3.2805268827
 H         4.5399874781        3.5934830410        1.4154052714
 H         3.7463497108        2.1831946971        0.8363772314
 H         0.5172266093        0.7865158756        3.8901494187
 H         0.9659942940        1.9882147755        5.2238781936
 H         2.7697504666        1.6411342739        6.0090997259
 H         4.3350654908        1.2117374667        5.5521887107
 H         3.0619559764        0.4462325845        4.7824357540
 H         2.3029635288        3.9805494339        5.0530661431
 H         3.9954600832        4.1524632967        5.2363982455
 H         3.1635305721        4.6780602011        3.6905247195
 H        -0.5762013445        2.9410994509        2.8444489473
 H        -0.3517504485        3.7624186885        4.2921079842
 H        -3.0340431911       -0.1884258166        4.5490953880
 H        -4.2258893666       -0.7766231711        3.4684760140
 H        -4.1216663249        2.1212607977        5.2554328731
 H        -4.7621605490        1.0788166804        4.0719893722
 H        -4.9078325781        2.9369691303        3.7622339735
 H        -3.7614373235        3.0230634065        1.5788967023
 H        -2.9860610505        4.0150023003        2.8343716427
 H        -2.1497955647        3.1489161843        1.5452660568
 H        -2.0669673195       -1.9306587483        2.2506349451
 H        -1.3601103536       -1.7852551058        3.8838947511
 H        -1.5647919567       -6.1732518428        1.1957452850
 H        -2.4980329930       -4.9527960529        0.7581968882
 H        -1.0211667058       -5.5239677689        5.2855392794
 H        -2.3649422382       -4.5248434756        6.0562682923
 H        -1.0242580537       -3.7837516234        5.2459013828
 H        -4.0538090543       -5.6649066816        2.9496528729
 H        -2.4898833689       -6.6674975806        2.9242896639
 H        -3.2948010304       -6.3404952278        4.4158578580
 H        -0.7598703517       -5.0307796281       -0.8211920154
 H         0.4615377389       -5.1729035685        0.1644785738
 H         2.0500078449       -0.8993541584       -3.4922027436
 H         2.2216517508       -2.7377335235       -3.5087202787
 H         1.2163368450       -0.3963852290       -0.0793895478
 H         2.6903512311       -1.2629474927       -0.2822286888
 H         1.8070928651       -1.7128202588        1.0644394837
 H         3.0186629372       -3.2069386047       -1.5467550673
 H         2.2999043692       -4.1263320282       -0.0402376422
 H         1.7336223653       -4.3599260163       -1.6578348610
 H        -0.3590014519       -1.3711283947       -4.5811170024
 H         0.8302518519       -2.1182018429       -5.4920242602
 H        -3.9708262693       -3.9445821785       -2.4934026341
 H        -3.0729220680       -2.7193784686       -1.4707315208
 H        -2.5643208401       -1.7628229981       -5.9680426670
 H        -2.8624329500       -3.3841495321       -6.5057043752
 H        -1.1982297320       -2.9426037583       -6.6231507636
 H        -3.5607859387       -4.7355820670       -4.7337802464
 H        -2.2280560881       -5.3500496847       -5.4571850449
 H        -2.1554270778       -5.2016000947       -3.6118572964
 H        -5.2851081694       -2.2485975185       -1.3646106442
 H        -5.6095768414       -1.9736506115       -3.0385305110
 H        -2.7036563017        1.4154689571       -2.9791911887
 H        -3.1830036934        3.1434381389       -3.4366190201
 H        -6.5085833119        1.1034654909       -4.5540971741
 H        -6.2349166310       -0.6673774134       -4.3321419897
 H        -5.0671115833        0.4836028077       -4.8868117075
 H        -7.3903063586        1.4630697036       -2.2401444033
 H        -7.6400828991       -0.1613934931       -2.2331328669
 H        -6.7531341835        0.5723941980       -0.8283673060
 H        -3.5540363324        3.7160244045       -1.2778986101
 H        -3.2645313610        2.1331504947       -0.5812637646
 H         0.5288672598        6.4995588258       -0.6874012815
 H        -0.6564416638        7.4883011422       -1.5468209246
 H        -0.8286265322        7.3003417283        0.1224044723
 H         1.1829199114        3.1507333015       -0.8243344181
 H         0.6136568960        3.8849176342        0.5113956037
 H         1.4874589434        4.8235123320       -0.8484818184
 H        -0.5225619190        3.3647027588       -3.2715460247
 H        -1.3665622849        4.9613029602       -3.2548544571
 H         0.4161202904        4.8891435066       -3.0591464369
 Na       -1.5871552784       -0.2308898477       -0.5690366895
