155

 C         5.2180044091        0.6721907983       -3.5651719265
 C         6.0173964822        0.1632410668       -2.3959943979
 C         6.7769876790        1.0998781864       -1.4705987518
 C         5.6273064110        1.8546478092       -0.7127019515
 C         5.8381082713        2.0648072855        0.7595810273
 C         7.7359771237        0.3168442501       -0.5751570458
 C         7.5681384601        2.1443677906       -2.3177504642
 O         6.0178952038       -1.0545297618       -2.2984233027
 O         4.6489503531        2.2831738682       -1.3203154634
 C         4.6924775296        2.8073459602        1.5418257128
 C         4.3656302499        1.9201080312        2.8441374552
 C         3.2979836808        2.3231449876        3.8431834081
 C         1.8666709950        2.2543563150        3.0893918380
 C         0.6227042530        1.8828750619        4.0128576942
 O         4.9805443675        0.8902989313        3.0852312204
 O         1.7591232046        2.4900691282        1.9232522981
 C         3.4068418101        1.3514481014        5.0997607260
 C         3.4224500232        3.8023854594        4.2055605615
 C        -0.6574181094        2.8245750885        3.7276818446
 C        -1.8946386082        2.2015535994        4.4326270691
 C        -3.1579255793        1.9775174604        3.5465334466
 C        -2.9065233626        0.5653690163        2.8116154836
 C        -3.3611311109       -0.7963358568        3.4994229167
 C        -4.4374721672        1.7910360388        4.4083157077
 C        -3.3069845671        2.9858615652        2.4747871886
 O        -1.8132869661        1.6832729425        5.4835195041
 O        -2.5077689952        0.4672793508        1.6829217406
 C        -2.4199722870       -1.9231429109        3.1822156962
 C        -3.1365673719       -3.2728188467        3.2998076439
 C        -2.1915072494       -4.6006158983        3.6602977540
 C        -1.0678588334       -4.4901728420        2.5500840014
 C        -1.4886773811       -4.8492538712        1.1876213696
 O        -4.3301560039       -3.4043684787        3.2839054269
 O         0.0080222455       -3.9703911926        2.8455825945
 C        -1.6706793494       -4.5058778659        5.0596265681
 C        -3.3042660880       -5.8448835292        3.5091126258
 C        -0.4147794867       -4.4737025306        0.2085849703
 C        -0.3300726776       -2.9849777022       -0.0202144137
 C         0.9860147999       -2.3901542998       -0.5993957103
 C         0.6882679598       -1.7065114431       -2.0538453977
 C         1.4315006569       -2.1610304895       -3.3828408239
 C         1.5248886532       -1.3812271014        0.4557574903
 C         2.0031165693       -3.5592866571       -0.8069242878
 O        -1.3624564405       -2.2936392976        0.2478234330
 O        -0.1660752110       -0.8872891077       -2.0858245185
 C         0.5055939937       -2.2610356211       -4.5895484806
 C        -0.5902301892       -3.2625536379       -4.1599617053
 C        -2.0431158978       -3.2789652509       -4.7529367830
 C        -2.9616979884       -2.3717590864       -3.8436265768
 C        -3.5904541402       -2.7775418013       -2.6302370839
 O        -0.1973789136       -4.1452786972       -3.4004235919
 O        -3.0411058856       -1.1951709841       -4.1366112863
 C        -2.0205646894       -2.6908581430       -6.1763813490
 C        -2.5037086640       -4.7647926267       -4.7429294440
 C        -4.9459110694       -2.0709291627       -2.2939667682
 C        -4.5506736369       -0.5714593312       -2.1388432323
 C        -5.4610956710        0.5282088322       -2.7641360916
 C        -4.8452600656        2.0083775124       -2.5920883155
 C        -3.3859318143        2.1708297186       -2.7124271093
 C        -5.7009277689        0.2355362866       -4.2407657557
 C        -6.8297169763        0.4878648177       -2.0302469829
 O        -3.6288566211       -0.3238928609       -1.4125976108
 O        -5.5406030642        2.9734845330       -2.5537242680
 C        -2.7991676360        2.6345442542       -1.2803785565
 C        -1.3558994796        2.8055795703       -1.0790835346
 C        -0.6489183513        4.1257611021       -1.5293824779
 C        -1.3341931085        5.4411655267       -1.0210222249
 C        -0.5175444810        6.7495677125       -0.7715799747
 O        -0.7422036442        1.9545368561       -0.4456706108
 O        -2.5153455510        5.4315352764       -0.7681942474
 C         0.6814268065        4.0669767378       -0.7718955873
 C        -0.2672610418        4.0402852897       -3.0375001862
 H         4.3668317296        1.3389220833       -3.1124157126
 H         5.7270770282        1.2841841899       -4.3167188829
 H         4.7180278495       -0.0629499856       -4.1415021301
 H         5.9616152321        1.0726593924        1.2145767417
 H         6.6990468612        2.6120480588        0.8560222029
 H         8.3762069850       -0.3008152253       -1.3189938313
 H         7.2770646010       -0.4254716611        0.1781554468
 H         8.5263384916        0.9583443268       -0.0322131042
 H         6.9009455122        2.8793899357       -2.7897972007
 H         8.4195772539        2.5793966324       -1.7596175223
 H         8.0114031111        1.5891352247       -3.1430386391
 H         5.0487764129        3.6779462767        2.1383918859
 H         3.8913219996        3.1058886899        0.8508621350
 H         0.3932938941        0.8959037777        3.7063573043
 H         0.8648165295        1.8234422194        5.0723011032
 H         2.7058256974        1.5933428438        5.8567473579
 H         4.4670209308        1.5233699763        5.6756222935
 H         3.3562806238        0.2550078823        5.0269433610
 H         2.6485931833        4.0745547895        4.8997447904
 H         4.3183266508        4.0875810472        4.6449101632
 H         3.2978235620        4.4701658055        3.3764601878
 H        -0.9374539516        2.9645320739        2.6056256815
 H        -0.5481218209        3.8181879634        4.1232196162
 H        -3.5607342967       -0.7435185442        4.5418546593
 H        -4.3759880937       -1.0359986430        3.1669517966
 H        -4.4453374841        0.9151761727        5.0206053110
 H        -5.3230926273        1.7533714340        3.8225592516
 H        -4.5174690660        2.6712437544        4.9101681710
 H        -4.3159837079        2.8627098569        2.0941484054
 H        -3.0906954934        4.0042935892        2.6103237704
 H        -2.6969769741        2.6496888261        1.6279766796
 H        -1.9777148202       -1.7331249524        2.1878226013
 H        -1.6414136510       -1.9028243103        3.9261160658
 H        -1.7939064711       -5.7899217015        0.9582748433
 H        -2.5243881545       -4.4396861714        0.9807398278
 H        -1.1387641524       -5.4256494585        5.3951359817
 H        -2.5123802003       -4.3585513382        5.7282621045
 H        -1.0006354361       -3.5775705240        5.2507466794
 H        -3.3231145467       -6.3391932906        2.6024345471
 H        -3.1619539559       -6.4620748901        4.3489714923
 H        -4.3858444985       -5.5758826204        3.5418774034
 H        -0.3458209835       -5.0250108102       -0.7395079274
 H         0.5515880269       -4.8527460327        0.6268067664
 H         2.1317444367       -1.3517376956       -3.5445039369
 H         2.0139555309       -3.0629414461       -3.2494450480
 H         0.8263811847       -0.5544724816        0.7151829173
 H         2.4395541720       -0.8632099528        0.2711705354
 H         1.7581566015       -1.9784070331        1.3132352491
 H         2.8157347846       -3.0936994496       -1.2599851662
 H         2.1994718928       -3.8411651556        0.2174561918
 H         1.7018992890       -4.5020687892       -1.4221919319
 H         0.2510920634       -1.2567311440       -5.0439515006
 H         1.0291927240       -2.7361531952       -5.4140364904
 H        -3.7347201507       -3.8636495782       -2.6408032693
 H        -2.9119082165       -2.6093806272       -1.7761168056
 H        -2.4234352894       -1.7325501166       -6.1780151828
 H        -2.5232796753       -3.2808300341       -6.8790181502
 H        -1.0078774176       -2.8105267147       -6.5744552549
 H        -3.2688731787       -4.8790610398       -5.5981113250
 H        -1.6661990364       -5.2535677740       -5.2004391763
 H        -2.8130092845       -5.2099463699       -3.8140492002
 H        -5.3215070917       -2.2761224047       -1.2083187273
 H        -5.7714832975       -2.1994400855       -3.0158917873
 H        -2.8816733609        1.2218217853       -2.8373712978
 H        -3.1907311843        2.9343752882       -3.4660962775
 H        -5.8814308235        1.1653763776       -4.7857942325
 H        -6.3221780967       -0.6789768844       -4.3816786058
 H        -4.7490831392        0.0079903637       -4.8159330085
 H        -7.7654372587        0.8306931857       -2.6472268879
 H        -7.1481884028       -0.4631504498       -1.7426877284
 H        -6.8043540321        1.0923954162       -1.1491959945
 H        -3.3153322714        3.5303032843       -0.9572271893
 H        -3.0974609139        1.8920922520       -0.5264209456
 H         0.3707330721        6.6257167335       -0.1815731902
 H        -0.2236267605        7.1861921688       -1.6923409238
 H        -1.2705031289        7.4900658760       -0.3735886645
 H         1.1787762250        3.1285524832       -1.1269339199
 H         0.6580459125        3.9525039831        0.2687128604
 H         1.4067277383        4.7797069278       -1.1082595562
 H        -0.0320748417        3.0044514448       -3.2289407909
 H        -1.0349830315        4.2698136948       -3.7091106793
 H         0.5999258902        4.6163626603       -3.2052579305
 Na       -1.4954322612        0.0640143719       -0.4000020507
