155

 C         6.4401808603        2.4156858959       -3.7951958600
 C         6.3631344069        1.4399455860       -2.6333759603
 C         6.9308879471        1.8561319547       -1.1995086760
 C         5.7890471579        2.5235191649       -0.3058112252
 C         5.6962716713        2.0911271841        1.1570251397
 C         7.5726229689        0.5143604279       -0.6342792535
 C         8.1049864597        2.8810457759       -1.3817928724
 O         5.9506275948        0.3220792252       -2.8683925319
 O         5.0167945453        3.3253586474       -0.7459923580
 C         4.7295135997        2.9584293542        1.9424015100
 C         3.8204938949        2.0993376332        2.9991700637
 C         2.9113636342        2.8870562155        4.0256226644
 C         1.4659159443        2.6986948600        3.5367457185
 C         0.5208023270        1.7528164936        4.2450657574
 O         3.8511898721        0.8937393683        2.9238132322
 O         1.0806984694        3.2540240660        2.5141823118
 C         3.1848395715        2.1859526664        5.4030895670
 C         3.0752218222        4.4800139232        4.0147342028
 C        -0.8216420724        2.0011013064        3.4720547003
 C        -2.0613191785        1.6591914393        4.4213825899
 C        -3.5359482505        1.3955644529        3.8478730029
 C        -3.3473175614        0.2977971888        2.5803901368
 C        -3.9910250486       -1.0484961837        2.7211909689
 C        -4.5389010307        0.9397426486        4.9314926986
 C        -3.9689241045        2.6380090073        3.0368575073
 O        -1.8105503809        1.4694560040        5.6103686003
 O        -2.7859254017        0.6677862579        1.5462402034
 C        -3.1715633048       -2.1171590372        3.4651046719
 C        -3.4143149324       -3.4969882001        2.9609073879
 C        -2.7120432887       -4.6750364925        3.6212079118
 C        -1.3532229910       -4.5912592215        2.7961088254
 C        -1.2159365194       -5.0841864073        1.3309894579
 O        -4.0571402921       -3.7384136858        1.9703881247
 O        -0.3879562636       -4.0683630835        3.2756062758
 C        -2.3730992144       -4.4542334149        5.1474199839
 C        -3.4426397701       -5.8933850423        3.3330926393
 C         0.0616850196       -4.4193215761        0.7779565183
 C        -0.2083286537       -2.9537888685        0.4288996371
 C         0.9845299650       -2.1070444186       -0.1644017706
 C         0.5728941041       -1.8917073731       -1.5988961784
 C         1.4336584075       -2.6377017992       -2.6178209950
 C         1.0748609515       -0.8105545900        0.7451738257
 C         2.3128775238       -2.9055564267        0.1120577118
 O        -1.3325143686       -2.4207133417        0.4482818993
 O        -0.2891957093       -1.1594165966       -1.9696918543
 C         0.8540324134       -2.5503431578       -4.0997422023
 C        -0.3678599224       -3.4517788749       -4.1458683679
 C        -1.4471503376       -3.2505715040       -5.2489334614
 C        -2.7453465722       -2.5099182769       -4.6645113319
 C        -3.8068871434       -3.2211144466       -3.8497430785
 O        -0.5374014323       -4.2889890391       -3.2776755590
 O        -2.7238132203       -1.3064374126       -4.8669849596
 C        -1.0034346022       -2.5005814786       -6.5075159571
 C        -1.8501035711       -4.6887244004       -5.7473799893
 C        -5.0179375547       -2.3621578724       -3.5056351251
 C        -4.6072609208       -1.0447030445       -2.7288596616
 C        -5.4055415995        0.3196662794       -2.8433669620
 C        -4.7202586798        1.4116359101       -2.0202283657
 C        -3.4107527311        2.0721866833       -2.5337494733
 C        -5.5168438840        0.4514199335       -4.3567462119
 C        -6.8388444214        0.0269910217       -2.3222307935
 O        -3.6435331644       -1.0887956772       -1.9586086124
 O        -5.3589166224        1.9410641250       -1.1456409675
 C        -2.8760331339        3.1182215188       -1.5259487057
 C        -1.3324707174        2.7427819175       -1.2713311687
 C        -0.3150830107        3.8373435356       -1.7967270212
 C        -0.3503243911        5.2514453254       -1.0077865695
 C        -0.2389089225        6.5387990713       -1.7299130102
 O        -0.9112372069        1.6637069595       -0.9177941776
 O        -0.3091362252        5.2399449928        0.1937863892
 C         1.0753792155        3.2743552978       -1.4194643936
 C        -0.4077233317        3.8777994546       -3.3911055750
 H         7.2121860047        3.1133699486       -3.7687447409
 H         6.5422456606        1.9198462361       -4.7563710004
 H         5.5463542389        3.0337553282       -3.8528160941
 H         5.3385608221        0.9757733083        1.1461373328
 H         6.6913302113        2.0067031414        1.6163093579
 H         8.1712411535       -0.1005840039       -1.2301959363
 H         6.8018443313       -0.1204517772       -0.2527682213
 H         8.2120613846        0.7406709920        0.1642927546
 H         7.6835299326        3.8977235716       -1.4522904964
 H         8.6819294165        2.8606989137       -0.4521294524
 H         8.7780435382        2.6098026311       -2.2090981475
 H         5.3837303115        3.6944800498        2.5026613469
 H         4.0740438653        3.5220815162        1.2663916939
 H         0.8954071705        0.7337731661        4.1687376026
 H         0.2896145056        2.0679100215        5.3242859235
 H         2.3785629649        2.2973547715        6.1174936342
 H         4.1456619131        2.4522267146        5.9047062030
 H         3.2841798652        1.1749212044        5.0675734221
 H         2.2315720145        4.9761443801        4.4829724014
 H         3.9757931644        4.7610667936        4.5073687386
 H         3.1163513013        4.8143040978        3.0210050640
 H        -0.8562921505        1.3793113462        2.6012825929
 H        -0.9498291861        2.9998737373        3.1419245279
 H        -5.0358557004       -0.9395150508        3.1939829541
 H        -4.0087791418       -1.3212140105        1.6569118537
 H        -5.3005517880        1.7040922723        5.1922426808
 H        -4.1100086790        0.6178387004        5.9197457607
 H        -5.2906376187        0.1355288390        4.5905320523
 H        -4.7136678779        2.3759237791        2.2777367748
 H        -4.3815082095        3.3925004285        3.7690403564
 H        -3.1390327258        2.9963902099        2.4425911104
 H        -2.1149208136       -1.9632007098        3.2368102564
 H        -3.1520101860       -2.0971704794        4.5710183279
 H        -0.9343236265       -6.0982972238        1.5272430065
 H        -2.0703591150       -4.8776717975        0.6999403019
 H        -1.6452761075       -5.1535028455        5.4868642523
 H        -3.2332331540       -4.3968459945        5.7137387777
 H        -1.9411161786       -3.5178218824        5.2315782611
 H        -4.3976457877       -5.6104095326        2.7612738328
 H        -2.9034327731       -6.6342138946        2.7288951018
 H        -3.5702461534       -6.5027271447        4.2221214513
 H         0.2658185756       -4.7908202466       -0.2386477316
 H         0.8394444985       -4.5449860858        1.5569923022
 H         2.4737563041       -2.5421543472       -2.6194230608
 H         1.3104362243       -3.7517704933       -2.3637661541
 H         0.2139835763       -0.2120485897        0.8416960522
 H         1.9271250885       -0.2392341997        0.3796948720
 H         1.3859341055       -1.1053329707        1.7405641956
 H         3.1777232445       -2.4076430082       -0.3461448824
 H         2.4883741909       -3.2158975443        1.1408751680
 H         2.2627823553       -3.7722294612       -0.4058418267
 H         0.6175098604       -1.4842589382       -4.2846121707
 H         1.5853532411       -2.8666669759       -4.7659339170
 H        -4.2521717460       -4.1191047968       -4.3028234502
 H        -3.5130825943       -3.7333145721       -2.8884917533
 H        -0.2907078234       -1.6389633635       -6.5582459700
 H        -1.9004372041       -2.0248888239       -6.9028415366
 H        -0.6574610759       -3.1689948674       -7.2944023535
 H        -2.2125987469       -4.6703011200       -6.7600935999
 H        -1.0155004528       -5.4394734793       -5.7820421447
 H        -2.5563627138       -5.1248663592       -5.0369767676
 H        -5.6215625807       -2.9258669584       -2.8790303091
 H        -5.5400856690       -2.1556306772       -4.4323625549
 H        -2.6696648127        1.2688962162       -2.7453523093
 H        -3.7023714159        2.3874563861       -3.5354069992
 H        -5.7944492913        1.4861910401       -4.6020497073
 H        -6.3736287626       -0.1300528938       -4.6549103563
 H        -4.6517291507        0.1801612764       -4.9060463316
 H        -7.5816368680        0.6216093462       -2.6941726669
 H        -7.2521784917       -0.9709252831       -2.6511295185
 H        -7.0003639885        0.0153631682       -1.2027901398
 H        -2.9219333259        4.1387476528       -1.8263951576
 H        -3.4307964132        2.8756861278       -0.5452397009
 H        -0.5308882698        6.4297746656       -2.7886916451
 H        -0.8269945066        7.3119336872       -1.1411175439
 H         0.7614709288        6.9227800397       -1.7983746944
 H         1.2070050028        2.3260648396       -1.8908722402
 H         1.2439820231        3.0699902574       -0.3105979459
 H         1.9095296303        3.8885722749       -1.8626184360
 H        -0.7551863777        2.9346986871       -3.8018345269
 H        -1.0462195812        4.6730423042       -3.7247565910
 H         0.5279374489        4.1414747462       -3.8221406891
 Na       -1.9382850307       -0.2760608618       -0.4339975876
