155

 C         6.3762532490        2.7651183169       -3.6865524842
 C         6.3701015686        1.6909212413       -2.6550393287
 C         7.0360505595        1.9225444774       -1.1900363529
 C         5.8630258651        2.5132848624       -0.3484162742
 C         5.4113703361        1.8928593467        1.0267959150
 C         7.4398821206        0.5558144373       -0.6009188452
 C         8.2217427435        2.9526810960       -1.2559726712
 O         5.9685929676        0.5868450077       -2.8830103220
 O         5.2246148330        3.4564350408       -0.8084332752
 C         4.7317586088        2.9096994642        1.9753471561
 C         3.8304044935        2.2247870663        2.9971767815
 C         2.8295560624        3.0565037242        4.1007492616
 C         1.4382895302        2.8222280393        3.4074890026
 C         0.4936254772        1.8695790055        4.1679448485
 O         3.6847202265        1.0055806278        2.9896913883
 O         1.1504927334        3.4129135668        2.3756955399
 C         3.0716940081        2.4063108532        5.5518048241
 C         3.2920929614        4.5473618753        4.2147134226
 C        -0.9686574847        2.0279958753        3.6628801094
 C        -2.1430375626        1.4447086843        4.5012664522
 C        -3.4669820694        1.2951963906        3.6820809019
 C        -3.1986803783        0.2738519731        2.4480164690
 C        -3.9259747629       -1.1109196858        2.3441446384
 C        -4.5961541136        0.7808085949        4.6676005744
 C        -3.8609047225        2.6351974300        3.0724798096
 O        -2.1998499914        1.0627280229        5.6123066569
 O        -2.4273638067        0.5560784796        1.5360907809
 C        -3.6781500820       -2.0907290176        3.5265979315
 C        -3.5445364315       -3.5371868434        2.9678454929
 C        -2.7005230168       -4.6635450495        3.6732639623
 C        -1.3656444069       -4.5297735583        3.0577895264
 C        -1.2246115211       -5.0397102018        1.6417260384
 O        -4.1888571732       -3.6949503385        1.9304259847
 O        -0.4421452342       -3.9601870305        3.6038382460
 C        -2.6756910076       -4.5246590054        5.2175803934
 C        -3.3438549603       -6.1795669722        3.3633081226
 C        -0.0641910238       -4.4452584185        0.7280174064
 C        -0.2220691447       -2.9200231919        0.4307875069
 C         1.0210567302       -2.0616371936       -0.1108260308
 C         0.7630582863       -1.8468105224       -1.6203829071
 C         1.5252926219       -2.5068528016       -2.6954824963
 C         1.0074242969       -0.7090468411        0.6111706177
 C         2.4142227988       -2.6872830628        0.1275583452
 O        -1.3309077149       -2.4525628205        0.5728450561
 O        -0.2246647069       -1.1197543177       -1.9364868801
 C         0.8556925398       -2.4517182728       -4.1111727972
 C        -0.4118822277       -3.3637641781       -4.1682210535
 C        -1.4150157508       -3.2809476405       -5.3878860636
 C        -2.6187982014       -2.4133763789       -4.7668787249
 C        -3.6362853578       -3.2092796463       -4.0078263838
 O        -0.7982140796       -4.1010360290       -3.2758977450
 O        -2.6746708137       -1.1959408146       -4.8799098945
 C        -0.8277685248       -2.5935429381       -6.6733438571
 C        -1.8594492150       -4.6988327038       -5.6409014667
 C        -4.9004802218       -2.2462138337       -3.6009726739
 C        -4.4715597220       -1.0716919184       -2.7369076174
 C        -5.4462346689        0.2243956703       -2.8262689134
 C        -4.7052308481        1.3051214191       -1.9929083983
 C        -3.4967447945        2.0671565312       -2.6306233801
 C        -5.4500813580        0.7282271759       -4.3751901300
 C        -6.8193086306       -0.0593778722       -2.2998245313
 O        -3.5832987978       -1.2847456102       -1.9280847258
 O        -5.1083865600        1.4429005807       -0.8371676342
 C        -2.9170649017        3.0216466802       -1.6320655266
 C        -1.3449291975        2.7168835970       -1.3967334294
 C        -0.1969128337        3.7159490230       -1.8557220167
 C        -0.2585956544        5.0283785442       -0.9698730306
 C        -0.2769425959        6.3529768290       -1.7420678499
 O        -1.0014588558        1.6440081608       -0.9166393319
 O        -0.2872525871        5.0769724056        0.2558466054
 C         1.1741171257        3.0685661457       -1.3840086894
 C        -0.3919302792        3.8292433729       -3.3612873938
 H         6.2954664794        3.8506723699       -3.4546106974
 H         7.2915902438        2.6366229629       -4.2791597059
 H         5.5573962472        2.5300997229       -4.4420559568
 H         4.8261400640        1.0598919212        0.8496838110
 H         6.3421025140        1.4655018240        1.3930388066
 H         8.3686994140        0.2941512920       -1.0777474369
 H         6.7727593641       -0.2639421493       -0.7833806741
 H         7.7592767078        0.6247042391        0.4546574340
 H         7.8566626132        3.9326203308       -1.5569766823
 H         8.7445070140        3.0022268265       -0.2937272879
 H         8.9141094727        2.5777349877       -2.0100006188
 H         5.4934426613        3.4654797943        2.5081172220
 H         4.1889063766        3.6811897486        1.3643396502
 H         0.9369755557        0.8458625805        4.0431751265
 H         0.5578713110        2.2165146573        5.1585533206
 H         2.5477794871        3.0415084974        6.3604305865
 H         4.0950412315        2.5458257845        5.6865578839
 H         2.9271211829        1.2798530693        5.6309752568
 H         2.8249842315        5.0666126649        5.0687892932
 H         4.4074985367        4.5792528823        4.2435292380
 H         2.9581671134        5.0786608925        3.2654372780
 H        -1.1299833374        1.7361407689        2.5829750828
 H        -1.1853551674        3.1513981838        3.6356663375
 H        -4.9581722068       -0.9964859089        2.2835408900
 H        -3.5072683887       -1.5068565985        1.3971834731
 H        -4.6590699803        1.3290012684        5.5841959941
 H        -4.3319637840       -0.1898325452        5.0405182476
 H        -5.5841425037        0.7652098835        4.2660854993
 H        -4.4102328847        2.4197770234        2.1313986902
 H        -4.3657932288        3.2907361829        3.7627907891
 H        -2.9276215445        3.0455943808        2.6335178132
 H        -2.8676110265       -1.8602744185        4.2295701541
 H        -4.5861588249       -2.1273989850        4.1144351155
 H        -1.0297195994       -6.1147838771        1.5908728825
 H        -2.1698602919       -4.6368472992        1.1412074462
 H        -2.2400946326       -5.4234861835        5.7097030955
 H        -3.7883159011       -4.2458608222        5.4479692827
 H        -2.1251444659       -3.5947882291        5.5257989386
 H        -3.9589310925       -6.0503895669        2.5516105463
 H        -2.5662417553       -6.9055057180        3.0572189238
 H        -3.8708007638       -6.6775421454        4.2257095318
 H        -0.2011019988       -5.1208973624       -0.1318763294
 H         0.8461710087       -4.5158108201        1.2946806642
 H         2.5599854574       -1.9913566802       -2.7772499472
 H         1.7986309524       -3.5030113265       -2.5084783041
 H        -0.0225049905       -0.2564735278        0.4310927520
 H         1.7690840587        0.0143289851        0.2904684152
 H         1.1935699467       -0.8156630567        1.6963697115
 H         3.1592262383       -2.1538372840       -0.4230190883
 H         2.6032705139       -2.7298411662        1.2035751396
 H         2.5603899522       -3.7918723410       -0.1896448888
 H         0.5579134464       -1.4273412152       -4.2797053676
 H         1.7154155335       -2.7186284959       -4.8338264473
 H        -4.1414727683       -4.0177719503       -4.5492916335
 H        -3.2335915693       -3.7401984476       -3.1784171911
 H        -0.7025178724       -1.5310260472       -6.5240772222
 H        -1.2957401320       -2.6339942393       -7.6581049918
 H         0.1957699879       -3.0227178617       -6.8497923698
 H        -2.9309410260       -4.8990223360       -5.9121762648
 H        -1.4803316205       -5.0324111577       -6.6013287757
 H        -1.4343883207       -5.3195770005       -4.8899910737
 H        -5.6793938606       -2.8514107733       -2.9765205462
 H        -5.3306742966       -1.8664419279       -4.5356477309
 H        -2.8293445672        1.3029885388       -3.0018116443
 H        -3.8617980244        2.5310412512       -3.5541744918
 H        -5.7339473026        1.7658455476       -4.4508200906
 H        -6.0706398657       -0.0104329052       -4.8574762603
 H        -4.4711275614        0.6127052884       -4.8470368600
 H        -7.4332102403        0.8718587969       -2.1157916269
 H        -7.4772057771       -0.5034715099       -2.9803248998
 H        -6.8678367849       -0.6757231253       -1.4413672377
 H        -2.9026522568        4.0173753119       -2.1286535816
 H        -3.3474739056        2.9968283814       -0.6972667573
 H        -0.6424883863        6.2738128011       -2.7524349615
 H        -0.7319829874        7.1136535345       -1.1799867678
 H         0.7899336063        6.6553552903       -1.9243310490
 H         1.6072521125        2.2517661245       -2.0288584536
 H         1.0478987461        2.6760296592       -0.4192849101
 H         1.9597447425        3.7721727809       -1.4690383097
 H        -0.8752764023        2.9136532500       -3.7749047594
 H        -1.0479917278        4.6751446642       -3.6748072063
 H         0.5849934056        3.9698585126       -3.9089869591
 Na       -2.0318787629       -0.4294516052       -0.5401473835
