155

 C         4.0395276046       -1.2162492730       10.6941963062
 C         4.4061507085        0.2533608697       10.3121129860
 C         5.7479999835        0.3765071737        9.3970930598
 C         5.5702796150       -0.3576595703        7.9997535769
 C         4.4001351661        0.2754070988        7.1515728877
 C         6.1843465187        1.8744574923        9.2644401408
 C         6.7946735363       -0.3990865178       10.3279742386
 O         3.7770555724        1.2255438930       10.6386621511
 O         6.2625058193       -1.2281329083        7.5145745141
 C         4.2809464803       -0.5065560556        5.7938255902
 C         3.7624710709        0.2415331065        4.5965164081
 C         3.2603020323       -0.5657924980        3.3574332894
 C         1.8337540527       -1.0159140286        3.9276566797
 C         1.1616651983       -2.3038918592        3.3832326968
 O         3.8732272577        1.4378085037        4.5035182841
 O         1.2656546046       -0.2661324119        4.6470371114
 C         2.9887965477        0.4489212691        2.1654346753
 C         4.1476784780       -1.7680015955        2.9808603984
 C        -0.2825775214       -2.4466819517        3.7713048291
 C        -1.2458333074       -2.5326711086        2.5576353212
 C        -2.7352072545       -2.6567720079        2.7865099975
 C        -3.4327029408       -1.2193868835        2.6825607736
 C        -4.4529612179       -0.8511961772        3.7618280455
 C        -3.4385209132       -3.3948096924        1.5656336827
 C        -2.9606220282       -3.4451933356        4.0927660771
 O        -0.6771743822       -2.5623343915        1.4719169710
 O        -3.0982501243       -0.4102291501        1.8506697557
 C        -4.5633892435        0.7031792646        4.1185831877
 C        -3.4821669964        1.1689532865        5.0268377153
 C        -3.3221847435        2.7145306028        5.3083475564
 C        -2.8361566950        3.2814182398        3.9354995257
 C        -1.3594543296        3.4573097891        3.6292496119
 O        -2.9476042470        0.3340635690        5.7423189606
 O        -3.6742865200        3.5576987310        3.0638145140
 C        -4.8039938175        3.2799808325        5.5409522512
 C        -2.4633349470        2.7588177336        6.5895439406
 C        -1.0639802748        3.6909657106        2.0912312146
 C        -0.7801917253        2.4921140748        1.3027553397
 C         0.0834745583        2.6915095772       -0.1462464756
 C         0.2225960094        1.2234302928       -0.7916247987
 C        -0.4883847582        1.0987217266       -2.1735132063
 C        -0.6158149586        3.7802685741       -0.9827120577
 C         1.4252883615        3.2234009440        0.2144474821
 O        -1.3631139091        1.4612359533        1.5193944339
 O         0.6010162323        0.1952718946       -0.2658557497
 C        -0.4966106675       -0.3732840307       -2.6888072931
 C        -1.8591624560       -0.9853835815       -2.9397238600
 C        -2.5578741920       -0.8839851554       -4.2944336191
 C        -1.9229804648       -1.9241341967       -5.2119362207
 C        -2.7985548011       -2.7566362661       -6.0719580186
 O        -2.3690387655       -1.4846397391       -1.9698382440
 O        -0.7135587841       -2.1489095494       -5.0773126612
 C        -4.1249987512       -1.2946990258       -3.9980767164
 C        -2.3564800467        0.5849675648       -4.7117915839
 C        -3.9555550573       -2.1879213081       -6.8285120198
 C        -4.0353353880       -2.5642995491       -8.3692466866
 C        -4.2121563496       -1.3065667932       -9.2058545223
 C        -2.7970070686       -0.4622839557       -8.8226891461
 C        -1.5315545061       -0.9084468371       -9.5494370490
 C        -4.4296592249       -1.7054776606      -10.7028983955
 C        -5.3953045165       -0.3254658561       -8.7188779373
 O        -3.5588959896       -3.5737724217       -8.8841624572
 O        -2.8674099507        0.3172402427       -7.8955390182
 C        -0.2201775371       -0.5588295279       -8.7579168251
 C         0.8804120911        0.0026001142       -9.6934836375
 C         2.1580281041        0.5785202216       -8.9716430781
 C         1.6776767093        1.7444552863       -7.9845023299
 C         2.4247700590        3.0128742225       -8.1305276756
 O         0.7345973607        0.2637824184      -10.8826092184
 O         0.8101272887        1.5304929172       -7.1721636499
 C         2.8142093597       -0.4383533060       -7.9257393474
 C         3.2408738151        0.9630976682       -9.9984133858
 H         3.1440116171       -1.4927035888       10.2418501649
 H         4.7904975970       -2.0153795953       10.5216519829
 H         3.8298009489       -1.1825368205       11.7632733008
 H         3.5171138331        0.1474612896        7.7950585063
 H         4.4836091743        1.2866831110        6.8470847482
 H         6.2330863990        2.2457197314       10.2883613104
 H         5.2922575307        2.5033524218        8.9904336040
 H         7.0483687315        2.1417559386        8.6133528165
 H         6.5428586075       -1.3877474441       10.5478085499
 H         7.8320937629       -0.2892269505       10.0705425376
 H         6.8467041742        0.0089450755       11.3477508290
 H         5.2183283995       -0.8912026884        5.3015244634
 H         3.6326251057       -1.2982563619        6.0545620678
 H         1.2786473844       -2.3511193924        2.2533855577
 H         1.7527177517       -3.1206283130        3.7326627106
 H         2.3746443628        1.2666220627        2.5409966924
 H         2.4423086317       -0.1321626231        1.4003381634
 H         3.9315758207        0.7953844042        1.9050410392
 H         4.3089132465       -2.4665338864        3.7439736662
 H         3.8197087370       -2.2519369366        2.0958170732
 H         5.1214011194       -1.3148545169        2.7334520549
 H        -0.5207066717       -1.6472904825        4.5094936440
 H        -0.4983506800       -3.3860068000        4.3061586358
 H        -5.4724557404       -1.0956243447        3.4077389103
 H        -4.4032214116       -1.3850829999        4.6762144333
 H        -3.7808116411       -2.7936510941        0.7345510712
 H        -4.3412780537       -3.9495498626        1.9130942839
 H        -2.9277826210       -4.3593573279        1.3171850541
 H        -2.4118764406       -4.3904879848        4.0225063619
 H        -2.5331080043       -2.9033920944        4.9398670286
 H        -4.0217043721       -3.6465367854        4.2413313063
 H        -4.6840824106        1.3366136391        3.2327052170
 H        -5.4796340245        0.8015563132        4.7139518875
 H        -0.9866269887        4.3352376634        4.1693018950
 H        -0.8695609859        2.6252147150        4.0919540196
 H        -5.3698606635        2.6419085244        6.1507747173
 H        -5.3319262601        3.2141040700        4.5907929694
 H        -4.6890117490        4.3503739706        5.8774090651
 H        -2.5106378186        3.6639608391        7.2299591793
 H        -2.7784621094        1.8340997801        7.0554362482
 H        -1.4206420713        2.7090556286        6.2967872944
 H        -0.4757494425        4.6255327778        2.0655540954
 H        -2.0281808052        3.9499578447        1.7348354742
 H        -1.4670464668        1.3567323511       -1.7198055083
 H        -0.4044402882        1.8623530831       -2.9823564128
 H        -0.4930235185        4.7756879452       -0.4792133687
 H        -1.6939733098        3.6049211575       -0.8822729624
 H        -0.4788621157        3.7159733156       -2.0662277254
 H         1.3744228797        4.0669572410        0.9508944172
 H         1.9833055241        2.4666916360        0.8350063879
 H         2.1023041578        3.5728661286       -0.5187789029
 H         0.1830470324       -0.5539769412       -3.5245866804
 H        -0.1252062396       -0.9310823038       -1.8467667347
 H        -2.0605338627       -3.2807203629       -6.6664020280
 H        -3.1407981394       -3.5744275728       -5.3192268397
 H        -4.8991680453       -0.6641885099       -4.5588651004
 H        -4.2679372711       -1.0132916006       -2.9147896388
 H        -4.1753913879       -2.3738624651       -4.0666879375
 H        -2.7398283759        1.1630725908       -3.8768119289
 H        -1.2985083876        0.8791163484       -4.7950012296
 H        -2.8926945436        0.8072182225       -5.6973643254
 H        -3.8708190343       -1.1378806580       -6.8223184657
 H        -4.9350990207       -2.4027433170       -6.3347943650
 H        -1.5669708923       -1.9598900728       -9.8247673832
 H        -1.5534870049       -0.3043552947      -10.5137479780
 H        -5.1856050060       -1.0642998460      -11.2379605518
 H        -4.8685135788       -2.7556035336      -10.6028482615
 H        -3.4777336242       -1.7935823105      -11.2719359903
 H        -6.3530001953       -0.8688708238       -8.7806538948
 H        -5.2862406374       -0.0494632802       -7.6675142322
 H        -5.3706355338        0.5325570937       -9.4393611622
 H        -0.4570479811        0.2462673191       -8.0006724273
 H         0.1556055421       -1.4296816244       -8.2171863906
 H         2.1251865487        3.6101239638       -9.0285775798
 H         2.2741735903        3.5790889420       -7.2371696744
 H         3.5203266123        2.8837552332       -8.1612115323
 H         3.2703143038       -1.2854611282       -8.5128357022
 H         1.9849126088       -0.9269142678       -7.4123636164
 H         3.5769652172        0.0435249843       -7.2691226777
 H         3.5720859593        0.0822912975      -10.5973809345
 H         3.0696940314        1.7786569768      -10.7722970886
 H         4.1622397981        1.2278317680       -9.4469551848
 Na       -1.6469295164       -0.8685645435        0.0949045914
