155

 C        -6.0505257850       -7.2369430019       -1.9095014502
 C        -6.0280681584       -7.2414616151       -0.2994489197
 C        -6.5300973271       -5.9493587022        0.5250211272
 C        -5.3285279087       -5.3575863438        1.2446149923
 C        -4.9496961486       -5.8614515646        2.7376807551
 C        -7.1178146832       -4.9227914976       -0.4378291589
 C        -7.7566960794       -6.4387860847        1.5035826365
 O        -5.7094305184       -8.2242428186        0.3294661368
 O        -4.5139840448       -4.7502699318        0.6028786113
 C        -3.7311080695       -4.9980182169        3.2127462055
 C        -4.1374297097       -3.5189776470        3.2914475326
 C        -2.9437857603       -2.5111335402        3.5799742259
 C        -2.0178156959       -2.4069726995        2.1397565338
 C        -2.8123540473       -2.0341445100        0.9566778274
 O        -5.2463560425       -3.0651107869        2.9187267423
 O        -0.7921877561       -2.6086843284        2.2529458281
 C        -3.3559069013       -1.0272985448        3.7013193250
 C        -2.0088252091       -2.6737846015        4.7417159132
 C        -2.1546031326       -2.5004563393       -0.3615176753
 C        -1.3160406588       -1.4765138780       -1.0806901190
 C        -0.2305420299       -2.1432042794       -2.1070387376
 C         0.1460711405       -1.1901957421       -3.2853976395
 C         0.5504438768       -1.7100235505       -4.6481287698
 C         1.1573788741       -2.1547448588       -1.2721497888
 C        -0.5637055209       -3.5544895883       -2.6296626152
 O        -1.4608282304       -0.3413941053       -0.7820031223
 O         0.1362864304       -0.0076630970       -3.0900569255
 C         0.3806859222       -0.6024025782       -5.7200261801
 C        -0.7272446444       -1.1310012518       -6.7352283196
 C        -1.1627041087       -0.0861073841       -7.7644932558
 C        -2.1565723051        0.9830749484       -7.0250616909
 C        -3.2511346552        0.3470172776       -6.2527600260
 O        -1.2468228952       -2.2267679749       -6.6996941751
 O        -1.9571037066        2.1539199468       -7.1340380614
 C         0.1067850014        0.6123590951       -8.2294664828
 C        -1.9140448512       -0.7465767803       -8.9865181088
 C        -4.0583711991        1.4063830497       -5.5155762973
 C        -3.2217609056        2.1304289038       -4.4849887412
 C        -3.6675610058        3.5980819598       -4.0473171845
 C        -2.7375166481        4.0161025964       -2.8288650850
 C        -1.9908440048        5.3978431199       -2.7951476090
 C        -3.2855108357        4.5349960690       -5.1822842521
 C        -5.1446369300        3.6632904808       -3.5315615254
 O        -2.3860750415        1.5328292585       -3.8797663858
 O        -2.7361519670        3.3873605758       -1.7877425618
 C        -1.1178752042        5.3916916119       -1.4738601713
 C         0.1339994241        4.3954788023       -1.6701961103
 C         1.2290180570        4.3155477063       -0.5165193589
 C         0.4739427458        3.4189614078        0.5603555956
 C         0.6131679008        3.8764532077        1.9880346202
 O         0.2177796896        3.6985854380       -2.6442593114
 O        -0.3311545648        2.5248728312        0.3566983173
 C         2.5059881231        3.6142063456       -1.0587879602
 C         1.7151861722        5.6910249357       -0.0749273817
 C         1.9114202155        3.7761778798        2.7055513402
 C         2.6319114283        2.3645079694        2.3686860963
 C         4.1312322369        2.1945790501        2.7900247748
 C         3.9751124708        1.4412289650        4.2849599729
 C         4.4868038899        0.0318313479        4.7479768859
 C         4.8595652606        1.1770602075        1.7700413220
 C         4.9426222401        3.5011154786        2.9381122221
 O         2.0896156529        1.5209817525        1.6720894677
 O         3.4551596419        2.1147093238        5.1006831299
 C         5.4963109480        0.2638285009        6.0034230439
 C         6.8213110648        0.8899729879        5.4949073640
 C         8.1416624124        0.5556284363        6.4292148199
 C         8.2616411334        1.7979864305        7.3281174595
 C         8.5985227144        3.1414944066        6.6784904518
 O         6.9128371880        1.4821649013        4.4249229045
 O         7.9412381856        1.7891038022        8.5213837643
 C         7.8444699483       -0.7240051112        7.2502665210
 C         9.2606252551        0.3998355043        5.4791463578
 H        -5.1597716864       -6.7175365317       -2.2296614321
 H        -6.1214440192       -8.2769409790       -2.1785296341
 H        -6.9712774026       -6.7499328444       -2.2634845728
 H        -5.7948915925       -5.8963571567        3.3662658718
 H        -4.6068144871       -6.8848149058        2.6294517489
 H        -7.2283253860       -3.9612611487        0.0568926501
 H        -8.1323281168       -5.2288548248       -0.7561875865
 H        -6.4275201302       -4.8112360829       -1.2770279902
 H        -7.3971939783       -7.2812908962        2.0438714707
 H        -8.2242673559       -5.6977993681        2.2111856718
 H        -8.5592772311       -6.8324233009        0.8958223541
 H        -3.5331987847       -5.2721675546        4.2516048146
 H        -2.7292340488       -5.1979488493        2.6389469802
 H        -3.7562458660       -2.5874487440        1.0312468408
 H        -3.1138356098       -0.9821796052        0.8987093686
 H        -2.6129383312       -0.2602881127        3.3323029001
 H        -3.7024213395       -0.8314501183        4.7780657092
 H        -4.3270617791       -0.7544166229        3.1975649296
 H        -1.9476223994       -1.7609917980        5.3336566050
 H        -2.4391561920       -3.4473763385        5.4017321125
 H        -1.0321316807       -3.0491764813        4.4612600549
 H        -2.9551515520       -2.8326474138       -1.1202522228
 H        -1.5720535505       -3.3719383986       -0.1735610633
 H         1.6346624455       -2.0112412370       -4.4544406746
 H         0.0236131107       -2.6584698453       -4.9025685242
 H         1.9803617986       -2.6003839139       -1.9119138633
 H         1.0251367674       -2.8821162516       -0.4650306379
 H         1.2472844164       -1.0251088495       -1.0894083328
 H        -0.6256932972       -4.3499393195       -1.9230604657
 H        -1.4529129370       -3.5556679442       -3.1709971906
 H         0.2062265423       -3.9923603827       -3.2573121127
 H         0.0285149630        0.2353247346       -5.2343429574
 H         1.3499441914       -0.3380805331       -6.1864037885
 H        -3.9502257942       -0.1501282229       -6.9730917959
 H        -2.8665827857       -0.3987782296       -5.5124106310
 H         0.4412314660        1.3866114524       -7.5424783220
 H         0.1460591496        1.0079795764       -9.2362852902
 H         0.9162131703       -0.1240116930       -8.2621725697
 H        -2.0220244397       -0.1298170375       -9.8648269491
 H        -1.5160164624       -1.6673867572       -9.3474055981
 H        -2.9317789939       -0.9427899001       -8.7235674223
 H        -4.8458804515        0.8475551054       -5.0320442530
 H        -4.5392507258        1.9939282135       -6.2724484612
 H        -1.4788650885        5.6047337072       -3.6956597139
 H        -2.8157704150        6.1658443013       -2.6987891370
 H        -2.1779380105        4.5594171811       -5.4794412101
 H        -3.2890484920        5.6337827754       -4.8169177202
 H        -3.9450407812        4.4482204171       -6.0572567942
 H        -5.5654088377        4.6432835903       -3.7143315318
 H        -5.5937448220        2.7563516543       -3.9836179028
 H        -5.1828365730        3.5745967713       -2.4651232890
 H        -0.8988259777        6.4187562189       -1.0968456781
 H        -1.6571792325        4.8526797641       -0.7031136109
 H         0.2661645602        4.9763471487        1.9520009701
 H        -0.0938574873        3.2013106539        2.5611797654
 H         2.5135437234        3.8292698579       -2.1713941882
 H         2.4226912981        2.4636482253       -0.9857505682
 H         3.3885328977        4.0302845338       -0.6488649077
 H         2.5213498197        5.5573096623        0.5789005038
 H         2.0062724030        6.3312444613       -0.9268560300
 H         0.9455699680        6.2940074655        0.4071605475
 H         1.9187422330        3.7250047195        3.8477769934
 H         2.5588005528        4.5620410864        2.4346312755
 H         3.6961261714       -0.5714520245        5.1482756291
 H         5.0338912984       -0.5179073252        4.0291578228
 H         4.5454354799        0.1716424634        1.6734973508
 H         5.9174477732        1.0880043691        2.0885174522
 H         4.7238607140        1.4603671636        0.7378074963
 H         5.9101604942        3.2765421050        3.3181220559
 H         5.0454835696        3.9313354333        1.9578517406
 H         4.4591354801        4.2815062443        3.6292365883
 H         5.0115051046        0.9595239711        6.6721448718
 H         5.6786362604       -0.7199856455        6.4596900049
 H         8.8222659394        3.9137236826        7.3807687159
 H         9.5216171568        3.0106288996        6.1169610305
 H         7.8182506342        3.4233727280        5.9564294858
 H         8.5811403962       -0.8272316468        8.0157725134
 H         7.7986952597       -1.6231072587        6.6723518312
 H         6.9679280575       -0.6253383861        7.8103546322
 H        10.2751729256        0.1877603828        5.9460836761
 H         9.0829666680       -0.3364175721        4.7478893323
 H         9.4746364837        1.3152931939        4.9446010255
 Na       -0.8673530468        1.5724093305       -1.8284860056
