155

 C         6.3552007977        5.4429607181       -2.0378705885
 C         5.4366283009        4.5071077310       -1.3195204023
 C         6.1010665951        3.2032866517       -0.5479249013
 C         5.7728981780        3.3022742346        1.0117844400
 C         4.4376651824        2.8689598213        1.5318341896
 C         5.5442347258        1.9840259841       -1.2637904533
 C         7.6916285833        3.1054906949       -0.5898308412
 O         4.2556142386        4.5550147018       -1.3715650859
 O         6.6812800674        3.5327841192        1.8207906691
 C         4.0499109611        3.4711219919        2.9423056113
 C         2.9912833308        2.4508252746        3.6916730833
 C         2.4549355472        2.7935790809        5.1143086417
 C         1.0284835942        3.3046257227        4.7153915650
 C        -0.3114986191        2.5348531419        5.1840203728
 O         2.5447208650        1.4886989173        3.1402985464
 O         0.8269703072        4.3038681167        4.0397802176
 C         2.5123940876        1.4903836057        5.9112207322
 C         3.2747134462        3.9305128412        5.7684701500
 C        -1.5783041050        2.8420179076        4.3753444060
 C        -2.2525400098        1.5870492672        3.7660563267
 C        -3.3976949819        1.5860060822        2.6623246484
 C        -3.0401762757        0.4207060794        1.8005870225
 C        -3.8960877716       -0.8185216677        1.7050812770
 C        -4.7477106167        1.4063703586        3.4051056319
 C        -3.4556548544        2.9879860493        1.9978486008
 O        -1.8552224603        0.4742166528        4.1860285127
 O        -2.0474940271        0.3677539780        1.0784580444
 C        -3.7355736881       -1.6924027544        2.9604666311
 C        -4.1602632597       -3.2413701804        2.6923109411
 C        -3.3032199539       -4.2665374327        3.4594206947
 C        -1.9946897770       -4.5536223411        2.7405760246
 C        -2.0549206710       -4.8438964681        1.1639205119
 O        -5.1729090342       -3.4953904389        2.0705303451
 O        -0.9334026669       -4.4429127791        3.2717460616
 C        -3.1042437560       -3.7820465206        4.9352943532
 C        -4.1912358429       -5.6117513036        3.4995318839
 C        -0.5765789102       -4.6089655456        0.6012221602
 C        -0.2656619528       -3.1537708335        0.2241397309
 C         1.1554007264       -2.5640217570       -0.1730479596
 C         1.1149049740       -2.2674899368       -1.8090892415
 C         2.3872417540       -2.5957560602       -2.6903157771
 C         1.2943463303       -1.0624674631        0.3766448417
 C         2.4038856504       -3.2841032674        0.1954364719
 O        -1.1909852575       -2.4141163221        0.4836400886
 O         0.1578889136       -1.7542704715       -2.2866313728
 C         2.1061394647       -2.7029048304       -4.1819190537
 C         0.9581263484       -3.6777923937       -4.4773767963
 C         0.0981041528       -3.4451640693       -5.7926345476
 C        -1.3127804568       -2.8415674333       -5.4065436706
 C        -2.4214626656       -3.6668690735       -4.7385688835
 O         0.8572340413       -4.7025732174       -3.8411618167
 O        -1.5887108355       -1.6588237849       -5.6460203496
 C         0.7350574513       -2.4027132694       -6.8439908270
 C        -0.0429024044       -4.8160464807       -6.4500676224
 C        -3.6878715516       -2.7855638899       -4.5473092303
 C        -3.6493905527       -2.0974090670       -3.1684704745
 C        -4.8699808307       -1.1233538492       -2.8027654310
 C        -4.1415389063        0.2399848351       -2.4377024641
 C        -3.6215783898        1.1601891450       -3.4865495955
 C        -5.8445985274       -0.8677770893       -3.9717128487
 C        -5.5765905363       -1.6612792301       -1.5156429180
 O        -2.7475575855       -2.2777329421       -2.3984347346
 O        -3.8889350658        0.4488162724       -1.2383322638
 C        -2.9504742668        2.4972788495       -2.9739348088
 C        -1.6548863256        2.2905471775       -2.1951754744
 C        -0.7389232965        3.5796166985       -1.9247285514
 C        -1.3392982500        4.3523497168       -0.6280152767
 C        -0.4857003814        4.7762460904        0.5642109141
 O        -1.1897305080        1.1944636986       -1.9158116745
 O        -2.5280607021        4.4441313895       -0.5433280594
 C         0.7247080450        3.0604568983       -1.6098537415
 C        -0.6817159289        4.5034525111       -3.1650788500
 H         6.6231451560        5.0362244739       -2.9779546415
 H         5.8713192984        6.3628455371       -2.3219491723
 H         7.2742754629        5.7147183678       -1.5409311687
 H         3.6691489164        3.1608984066        0.7660328901
 H         4.3380888412        1.7404990487        1.6491347874
 H         5.9113970283        1.9079088628       -2.3310011215
 H         4.4036704063        2.1127120729       -1.3990176190
 H         5.8893999157        1.0170669030       -0.7250711742
 H         8.1564329560        3.9624741167       -0.1586087093
 H         8.1455743346        2.2613208670       -0.1241076011
 H         8.0468600864        2.9721658150       -1.6032639973
 H         4.9835800290        3.6482946553        3.5161362172
 H         3.5932356306        4.5523971352        2.8587741425
 H        -0.0781851291        1.4857738237        5.1841797879
 H        -0.6744007360        2.7741285247        6.2049057631
 H         1.8755121864        1.4629040130        6.7740720361
 H         3.5483706212        1.2335403220        6.4371400227
 H         2.3123534998        0.6152394270        5.3422837240
 H         2.9027292974        4.1207518590        6.7763419746
 H         4.3947949922        3.8327876282        5.8662428279
 H         2.9841766561        4.8593291521        5.2200619226
 H        -1.5477110781        3.7354756471        3.7414057428
 H        -2.3698023988        3.1559022508        5.0066023230
 H        -4.9847965567       -0.5388733414        1.5946484571
 H        -3.8212751413       -1.4061182170        0.8389609938
 H        -4.6312273895        1.4084162568        4.4631499311
 H        -5.3316898694        0.4571344130        3.2099903214
 H        -5.3796178278        2.3246178302        3.1061823355
 H        -4.2528178364        3.2348639860        1.2936576834
 H        -3.4425084621        3.7856448178        2.7284850654
 H        -2.5038068749        3.1323009228        1.4275693751
 H        -2.7309114731       -1.4432233560        3.3113317057
 H        -4.4218170834       -1.3621423904        3.7840340775
 H        -2.2039249684       -5.9486220094        0.9736834363
 H        -2.6648941551       -4.1234971164        0.7622770452
 H        -2.7825804282       -4.4665627032        5.7159147669
 H        -3.9890373032       -3.3682415628        5.2620678652
 H        -2.3540610234       -3.0647928410        4.9217778417
 H        -4.9180547430       -5.4977132100        4.2355474003
 H        -4.7293069457       -5.7341491863        2.4784128957
 H        -3.6513955223       -6.6229890498        3.6035054100
 H        -0.3096540971       -5.2533949215       -0.2166722805
 H         0.0991965568       -4.8058662746        1.4733455238
 H         3.2360664158       -1.8881253203       -2.5188890087
 H         2.8090959457       -3.5630024804       -2.3608595111
 H         0.5421579012       -0.5187125270       -0.2228099046
 H         2.2538461982       -0.6206857780        0.1722718243
 H         1.0295589633       -1.1483613901        1.4372294028
 H         3.1755335234       -2.6606822287        0.5313076087
 H         2.1191474556       -3.9949275110        0.9721100083
 H         2.9379135661       -3.9835039983       -0.4400434146
 H         1.9613723926       -1.7241047057       -4.6761666535
 H         3.0223321103       -3.1334793204       -4.5478437813
 H        -2.3042147259       -4.5108960556       -5.3379564947
 H        -2.0535531699       -3.9344793084       -3.7747399059
 H         0.7821716285       -1.4892673146       -6.3909697291
 H         0.0125129464       -2.2729971423       -7.6060427805
 H         1.7313217857       -2.6488938782       -7.1326522664
 H        -0.7386303515       -4.6978140519       -7.3136474080
 H         0.9581418467       -5.2106744391       -6.6011739946
 H        -0.6519350150       -5.4707726805       -5.9583169301
 H        -4.6262382480       -3.3914965948       -4.6726226301
 H        -3.6568877191       -2.0477696930       -5.4339663710
 H        -2.8063142504        0.5902817881       -4.0210104948
 H        -4.2633992567        1.3922862704       -4.3368229755
 H        -6.7946500626       -0.2777412568       -3.8707521380
 H        -6.0005605345       -1.8347891726       -4.5321209360
 H        -5.4234719577       -0.2541917537       -4.8219385102
 H        -6.4215262052       -1.1266272283       -1.2130823055
 H        -5.7451023198       -2.7695899010       -1.6817077384
 H        -4.7874221066       -1.5426048005       -0.6493477125
 H        -2.8778690186        3.2184056601       -3.7596384275
 H        -3.5584443613        3.0123056067       -2.1378723585
 H         0.5240159795        4.4412652928        0.5735658683
 H        -0.3802241575        5.8045000414        0.4264125511
 H        -1.0500288781        4.6022316364        1.4811126701
 H         1.3712177971        2.9164961840       -2.5035463008
 H         0.6966046271        2.1159205917       -1.1612321965
 H         1.1112949206        3.6707491503       -0.8644701375
 H        -0.1797257836        3.9309154785       -3.9373851530
 H        -1.6200885970        5.0429865171       -3.5023495854
 H        -0.0353734740        5.3724351175       -2.8513325995
 Na       -1.6074610683       -0.7689286092       -0.9190146023
