155

 C         4.1041987053        6.9954256551        0.7808750481
 C         3.8196932794        5.6365558729        0.1579861609
 C         5.0360708828        4.5969358260        0.2524162800
 C         4.8156598630        3.8795782765        1.6769953326
 C         3.6606297575        2.9123402995        1.8126315815
 C         4.9856735327        3.6662851236       -0.9830631515
 C         6.4409960436        5.3690270405        0.2602236287
 O         2.8280494632        5.3260571501       -0.4130690857
 O         5.4420747842        4.3573540002        2.6011247873
 C         2.8722707137        3.2453511710        3.0751032192
 C         2.9665300179        2.0520051174        4.0172067106
 C         2.3551485818        2.1869026244        5.4659658025
 C         0.9241411048        2.8333366398        5.2202170807
 C        -0.2757621278        1.8934129727        5.0745814310
 O         3.5943463308        1.0737507582        3.7793795882
 O         0.7486686997        4.0539283585        5.3053317798
 C         2.4341467846        0.7929450890        6.1565792333
 C         3.3742966447        3.0975627300        6.2344565114
 C        -1.5137774332        2.3496545574        4.2272272636
 C        -2.3887014440        1.1027354942        3.8526987577
 C        -3.6103042616        1.2805333028        2.7617998267
 C        -3.3408421955        0.1906485015        1.5763850255
 C        -4.0997681390       -1.1621604710        1.5021702468
 C        -4.9615943231        1.0257192737        3.5741698096
 C        -3.5977326577        2.7531296067        2.0799223439
 O        -2.3022009636        0.0534648840        4.4454933311
 O        -2.6378173451        0.5623649792        0.7089914832
 C        -3.3666859948       -2.0275598634        2.5180495892
 C        -3.7726118865       -3.4980432431        2.2573426117
 C        -3.2663552248       -4.7878587569        3.0600015721
 C        -2.1093453969       -5.2721440432        2.2182401841
 C        -2.0596446155       -5.3330583884        0.6965133433
 O        -4.7490043009       -3.7298601749        1.5001084758
 O        -1.1768605384       -5.7838829888        2.8194198890
 C        -2.6502217308       -4.5266030709        4.4552232218
 C        -4.3473394517       -5.8571578140        3.1050948072
 C        -0.7058068663       -4.8820049197        0.0870193459
 C        -0.3324836340       -3.4538909132        0.2510106368
 C         1.2616699136       -3.0239656018        0.3598591467
 C         1.4288869991       -2.0139706289       -0.8766774704
 C         2.7367721011       -2.0429370220       -1.7769574972
 C         1.4249632210       -2.0564819171        1.6194832128
 C         2.2404228036       -4.1596748561        0.3771412526
 O        -1.1652540152       -2.6015114806        0.3088113891
 O         0.6652166475       -1.0879701134       -1.2692453108
 C         2.2652161541       -2.1189435612       -3.2233990387
 C         1.2505601728       -3.2328858141       -3.4065206538
 C         0.9589442703       -3.8430091252       -4.8022942077
 C        -0.4843819629       -3.3592822707       -5.1930692987
 C        -1.6886875303       -4.1286798178       -4.7205251202
 O         0.6338515714       -3.6710636330       -2.4439998665
 O        -0.6285304540       -2.3862258284       -5.9290608980
 C         1.9735684742       -3.3595563251       -5.7872045613
 C         1.2281579814       -5.4227696026       -4.6801866579
 C        -3.0107864661       -3.3348748660       -4.7889801114
 C        -2.9546050996       -2.0933609500       -3.8899305619
 C        -3.8436570315       -0.8165946037       -4.3371383457
 C        -3.8743158054        0.2178663266       -3.0287730580
 C        -3.9980930861        1.7490091710       -3.2522076316
 C        -3.2375573039       -0.2072913390       -5.6003985045
 C        -5.2996118742       -1.3513372997       -4.5206759127
 O        -2.1744999279       -2.0242705654       -2.9917863799
 O        -3.9621887326       -0.1829548339       -1.9183076791
 C        -3.1445288962        2.6404934207       -2.3366313079
 C        -1.6260755880        2.4763053437       -2.5745791337
 C        -0.7982248019        3.8010221232       -3.2078466083
 C        -1.1604456332        5.1009831567       -2.3887393414
 C        -1.3441527693        6.4277777845       -3.0696659694
 O        -1.1316794233        1.3497571687       -2.6011819189
 O        -1.4913380967        4.9458771752       -1.2055711382
 C         0.7350890369        3.5467214596       -2.9035709753
 C        -1.0346976784        3.9036345368       -4.6711073285
 H         4.4640897135        6.8538617167        1.7532569329
 H         4.8030647826        7.6436547284        0.2471415376
 H         3.2500763100        7.4993990304        0.8369127747
 H         3.0419873450        2.9685407384        0.9816771048
 H         4.0561892967        1.9404243619        1.9149691273
 H         4.8712038765        4.2518366572       -1.8244541133
 H         4.1387138323        3.0528747233       -0.8612591165
 H         5.7949700507        2.9802794474       -1.0586882831
 H         6.4916279091        6.0635654535        1.1099620206
 H         7.2264235761        4.5911674646        0.3144721374
 H         6.5153743449        5.9415100664       -0.6562279838
 H         3.1838515951        4.2145943600        3.5540548513
 H         1.8539014440        3.4921456324        2.7890608014
 H         0.0749655169        1.0273423477        4.5919526768
 H        -0.6679269405        1.7356018496        6.1066381934
 H         1.8859184815        0.8873449570        7.0282929546
 H         3.4287131298        0.6088460001        6.3617096752
 H         1.9389321009        0.0521549654        5.4546974763
 H         2.9579688487        3.1897230642        7.2825714585
 H         4.3317521706        2.5457514035        6.3180206191
 H         3.5400613617        4.0603643054        5.7439393868
 H        -1.0466960848        2.7558335175        3.2822994726
 H        -2.2994840745        3.0617101491        4.5164171171
 H        -5.1578001843       -1.0422250250        1.7636054597
 H        -3.9385700644       -1.4293792472        0.5262222659
 H        -4.8423909381        0.3172125641        4.3892822731
 H        -5.6847568181        0.6842962513        2.8943605897
 H        -5.2994458936        1.8949253190        4.0929679011
 H        -4.4225126804        2.9731569669        1.4595650282
 H        -3.6071471086        3.4917274311        2.8457034038
 H        -2.6809560949        2.8398757327        1.4844712644
 H        -2.2588882494       -1.9348630651        2.4011092284
 H        -3.4727918242       -1.8002562814        3.6133173995
 H        -2.2627292948       -6.3573630011        0.4350101385
 H        -2.9381205679       -4.7716317591        0.2546938144
 H        -2.4907540590       -5.5053216344        5.0200663501
 H        -3.2362462329       -3.7624396914        4.9523726721
 H        -1.6861135730       -4.0747783641        4.2870979413
 H        -4.9757055242       -5.6719504084        3.9441040190
 H        -5.0268730702       -5.9775727172        2.2294043865
 H        -3.7602836690       -6.7905875650        3.2451404425
 H        -0.6805148707       -5.0809773521       -1.0043767345
 H         0.0181297505       -5.4921098199        0.5505794012
 H         3.2554051205       -1.0775396337       -1.6454523217
 H         3.3882091073       -2.8675646515       -1.4927363360
 H         0.4878561310       -1.4845620849        1.6578973189
 H         2.3335153273       -1.5084997744        1.4830123418
 H         1.4911007205       -2.5433588830        2.5282650851
 H         3.2721135922       -3.7368036056        0.3790342209
 H         2.0856207135       -4.6347869054        1.2812183845
 H         2.0213183178       -4.8410474030       -0.4500519029
 H         1.6480759407       -1.1903212666       -3.3954625234
 H         3.0463014107       -2.2418905972       -3.9035051970
 H        -1.8980117584       -5.0931204736       -5.0965689197
 H        -1.5698756073       -4.3336109968       -3.6442337054
 H         1.9879932858       -2.2519336725       -5.7572922614
 H         1.9059758489       -3.8284531688       -6.7997593291
 H         2.9995182237       -3.6593585622       -5.5105650434
 H         1.0075751855       -6.0317360379       -5.5870051912
 H         2.3339669989       -5.5571257311       -4.4422839818
 H         0.8261613211       -5.8455494904       -3.8045639115
 H        -3.8850293921       -3.9181792633       -4.4292229722
 H        -3.3475551258       -2.9858926026       -5.8089808885
 H        -3.7690232837        2.0477606820       -4.3283986462
 H        -5.0743990190        1.9252116028       -3.2040880761
 H        -3.8791179340        0.5031177784       -6.1160146941
 H        -2.9662363799       -0.9899248920       -6.3441509361
 H        -2.2439358317        0.2060573263       -5.4201889649
 H        -5.9177395839       -0.5091079097       -4.7558611382
 H        -5.3699031740       -2.0347589750       -5.4375561086
 H        -5.6973342189       -2.0479442488       -3.7299770106
 H        -3.4319626794        3.6948031858       -2.3028522546
 H        -3.3655603883        2.4283332436       -1.2840202176
 H        -1.7261449674        7.0994364674       -2.2662498858
 H        -0.4470295104        6.9291700692       -3.4791930048
 H        -2.0221138532        6.2340329587       -3.9281577549
 H         1.4756399031        4.0321033686       -3.6214863648
 H         1.0192589405        2.4782282184       -2.9386454190
 H         0.9057352249        4.0175064133       -1.9410031850
 H        -0.8080528989        3.0121085029       -5.2142636011
 H        -2.0587652617        4.0411051888       -4.8468129949
 H        -0.4791502954        4.7179720845       -4.9961792877
 Na       -1.6341103082       -0.4495322555       -1.0993153427
