155

 C         2.5362440331        7.0276192358        0.2165412673
 C         3.1601838447        5.7274411304       -0.0632169993
 C         4.6035753072        5.4570724858        0.4969238908
 C         4.4102934561        5.0858338770        2.0172896714
 C         3.5941783213        3.7984649556        2.3582922819
 C         5.3924637247        4.3297204189       -0.3220681629
 C         5.3979631292        6.7870665364        0.4682341161
 O         2.5391671763        4.8350409760       -0.6830159523
 O         4.8874968264        5.7028248808        2.8980983466
 C         3.8442279966        3.4009148892        3.8416348105
 C         2.8830811540        2.2286698854        4.0919590313
 C         2.3990440080        1.7369085739        5.5710307907
 C         0.7528078489        1.7966458695        5.4428295549
 C        -0.1337246386        0.6728510065        5.0239607667
 O         2.4368419293        1.6239231033        3.0795403629
 O         0.2236779005        2.8044876188        5.7827590576
 C         2.9128077581        0.3026548569        5.8573768448
 C         2.8253967806        2.6739111394        6.7297661962
 C        -1.1444664550        0.9366536246        3.8635898336
 C        -2.5578120225        0.2904763240        3.9153318532
 C        -3.7229810286        0.8344156470        2.9622215345
 C        -3.3525348868        0.0832054255        1.5579340897
 C        -3.9876941615       -1.2940502254        1.2096605979
 C        -5.2726227917        0.7793652380        3.3294022178
 C        -3.4475678276        2.3722369766        2.7093959790
 O        -2.9134505353       -0.3817650635        4.8548094013
 O        -2.5290778772        0.6139359545        0.8530802163
 C        -4.0642981229       -2.2688719658        2.4408759625
 C        -4.2839550346       -3.7592232770        1.9000499143
 C        -3.5058411231       -4.8939388812        2.6293833958
 C        -2.0060636968       -4.5960362373        2.2045704699
 C        -1.3982021750       -5.4454321859        1.1586311884
 O        -5.0192492001       -4.0548153538        1.0411201751
 O        -1.3503134731       -3.7836013189        2.7913024996
 C        -3.5461969027       -4.5952157926        4.1495932362
 C        -4.1909167266       -6.3709190867        2.1172088898
 C        -0.1624638213       -4.7588854231        0.5651527198
 C        -0.4589124486       -3.2246446970        0.4123163940
 C         0.7485742441       -2.1790046290        0.5758458794
 C         1.3179434186       -1.8480566481       -0.8512039793
 C         2.5002476313       -2.6195621096       -1.4783524665
 C         0.1530518358       -1.0400884429        1.3399797903
 C         1.9403102796       -2.7580024889        1.5367230369
 O        -1.5149259068       -2.8061513288        0.0930893190
 O         0.6904011620       -1.0829432527       -1.5835371325
 C         2.4924376647       -2.7318374140       -2.9982321151
 C         1.9191982035       -4.0255859831       -3.4114903389
 C         1.6010930443       -4.3108404830       -4.9653293643
 C         0.2798363166       -3.5571947024       -5.1343201261
 C        -1.1483727632       -4.1413238241       -4.8376735889
 O         1.6819349269       -4.8991786544       -2.6039904459
 O         0.3615319910       -2.4415027698       -5.5521130154
 C         2.7626417172       -3.8137413380       -5.9225592099
 C         1.3115139723       -5.8144230708       -5.2068981628
 C        -2.2535735970       -3.0734968670       -4.9346254865
 C        -2.2548732084       -1.9333353948       -3.8641496536
 C        -3.0043950179       -0.6085540730       -4.3096081602
 C        -3.6024572760        0.2505243046       -3.2202275095
 C        -4.0036350836        1.6868404214       -3.5041839491
 C        -1.8711925111        0.1542322302       -4.9815943567
 C        -4.2118672699       -0.9653164348       -5.2140396634
 O        -1.7019671272       -2.1572075122       -2.8228389484
 O        -3.7028399561       -0.1952498973       -2.0786392005
 C        -3.4042419644        2.8047196615       -2.5569697402
 C        -1.8854094207        2.6724016299       -2.5411445019
 C        -1.0343102398        3.7009789901       -3.2799915028
 C        -0.9858271994        5.1812601944       -2.5883489026
 C        -0.1640512569        6.1966847289       -3.2291439258
 O        -1.3701189153        1.6708698316       -2.1074735581
 O        -1.7909649081        5.4601052598       -1.7185782246
 C         0.4228751927        3.2570721074       -3.4638623501
 C        -1.6936359032        3.9260347074       -4.7266845051
 H         1.9902182821        6.9261010508        1.2229547547
 H         3.1852558241        7.9227025152        0.1569628971
 H         1.7120522659        7.2133522082       -0.5293792123
 H         2.4555845205        3.9799644663        2.2096976045
 H         3.8400698885        2.9303181687        1.6771757387
 H         6.0743940426        4.6819134484       -1.1032980872
 H         4.6089520860        3.6836540461       -0.6836442000
 H         6.0083222082        3.7733031485        0.3550316207
 H         4.8593445145        7.4307806633        1.1492083610
 H         6.3862063101        6.7895577463        0.9221665499
 H         5.3770808770        7.1294131128       -0.5716316245
 H         4.8897428431        2.9657945453        3.8652032420
 H         3.7722727302        4.1615387355        4.5885936167
 H         0.3321355503       -0.3490193166        4.7568433611
 H        -0.7841275090        0.3249238581        5.9000627034
 H         2.1008576376       -0.2375896351        6.3976083020
 H         3.9095343148        0.2901108435        6.5169761908
 H         3.0013476557       -0.2466414509        4.9069330078
 H         2.3388722350        2.2378782527        7.5648242507
 H         3.8650190112        2.7591678823        7.0627170577
 H         2.3585545355        3.6631375669        6.6621361948
 H        -0.5567960481        0.7439906397        2.9290616070
 H        -1.3968638819        1.9876242966        3.7265873159
 H        -5.0115771243       -1.1742413848        0.8236184337
 H        -3.4762248551       -1.7146780252        0.3261911788
 H        -5.7541683296        1.4130445661        2.5610505839
 H        -5.6117437985        1.3104764191        4.2900959324
 H        -5.6593304416       -0.2769837870        3.2495081275
 H        -4.3732293564        2.7913420156        2.2876546435
 H        -3.4753977523        2.7427140264        3.7360866726
 H        -2.5693567734        2.6313773894        2.0917919096
 H        -3.0009690596       -2.3006498873        2.8176367134
 H        -4.8923077307       -2.0125870751        3.1250026827
 H        -1.0844173590       -6.2351570232        1.7890652126
 H        -2.1296765267       -5.7207677662        0.3183003319
 H        -2.9907821826       -5.2189234009        4.7382508519
 H        -4.5535642688       -4.7256835733        4.4841661379
 H        -3.2670136141       -3.5757752637        4.2460266148
 H        -5.2423492673       -6.1968992922        2.3085781431
 H        -3.8238602325       -6.5080850156        1.1204680012
 H        -3.8432534541       -7.2466033813        2.6966121530
 H         0.0324070450       -5.1536985754       -0.4634975432
 H         0.7774958557       -4.9849947460        1.0523801656
 H         3.3743526115       -2.0187145454       -1.0278428683
 H         2.6073863454       -3.5677228434       -1.0215424720
 H        -0.3315553860       -0.4076306534        0.6492264740
 H         0.7474334706       -0.3505589519        1.9406511112
 H        -0.5346154017       -1.5844940038        2.0613365759
 H         2.7064884684       -2.0507582004        1.6131915970
 H         1.4352385096       -2.9658956474        2.5053768665
 H         2.2734681643       -3.6900246441        1.1702679648
 H         1.9130888913       -1.9335533920       -3.5177260807
 H         3.4511873146       -2.7206199424       -3.5408629000
 H        -1.1318384679       -4.9857958384       -5.5239850080
 H        -1.0603774743       -4.5065996510       -3.7859210656
 H         2.9167429503       -2.7594167595       -5.8996762807
 H         2.4180440007       -4.1860591406       -6.8775230667
 H         3.6894084019       -4.3071806161       -5.5564106750
 H         0.9246404196       -5.9959069340       -6.1608793050
 H         2.2316540107       -6.2626592305       -5.2757460158
 H         0.5714522871       -6.1760550911       -4.4502859963
 H        -3.2523388122       -3.4834636004       -4.7252048855
 H        -2.2646919296       -2.6390231966       -5.9069701722
 H        -4.0000509936        1.8323759858       -4.5762894410
 H        -5.0419662697        1.7822222283       -3.2194298494
 H        -1.1488230392        0.6160323008       -4.2230558216
 H        -2.0003087017        0.9824466115       -5.7358563150
 H        -1.1556033954       -0.5961896592       -5.5135151487
 H        -4.8767054713       -0.1118167516       -5.4131341279
 H        -3.9518906091       -1.2250637527       -6.1866032589
 H        -4.7780035838       -1.7695538262       -4.7905530773
 H        -3.6412014843        3.8077565975       -3.0108215131
 H        -3.7487938553        2.6810168929       -1.5353152402
 H         0.8137339143        5.8605312749       -3.5030601952
 H        -0.7370724755        6.5615859211       -4.1017904323
 H        -0.0933916383        7.0185758000       -2.4988951830
 H         0.9159402586        4.0502509652       -4.0004331751
 H         0.5054152288        2.3291796958       -3.9812971972
 H         0.8954798381        3.2179178785       -2.4581058939
 H        -1.4780203473        4.9119520423       -5.0640840143
 H        -1.1035332403        3.2702534314       -5.4025013965
 H        -2.7792880658        3.7941004706       -4.7434310444
 Na       -1.7141896023       -0.4237611780       -0.9376541783
