155

 C         1.5666407068        7.2237303329        0.8664677166
 C         2.6840720781        6.3569410248        0.2189971161
 C         3.9638758636        6.0930159526        1.0610084473
 C         3.4241072120        5.2597349581        2.3741237781
 C         2.7568445736        3.8295303058        2.3758972890
 C         4.8744508394        5.2149270584        0.2302846797
 C         4.7004197666        7.2810362066        1.6455874190
 O         2.4860432488        5.8736221635       -0.8499751124
 O         3.6653055529        5.7274042940        3.4711106964
 C         2.5800178424        3.4236562716        3.8570494098
 C         2.5251398805        1.8632139009        4.0169418927
 C         2.1012154432        1.3156614300        5.4631561482
 C         0.5828882724        1.8205190759        5.4881149728
 C        -0.3465621926        0.9194437527        4.6908582265
 O         2.7600712071        1.1088380955        3.1428487458
 O         0.2132016288        2.8501910443        6.0626302878
 C         2.1520481134       -0.1911970618        5.5824029479
 C         2.8800488847        1.8751445021        6.6426020781
 C        -1.7692980924        1.5283423030        4.3339383942
 C        -2.6116362623        0.5064437394        3.5407805555
 C        -3.9339970625        0.9676381297        2.6453070495
 C        -3.8722335111        0.0127573471        1.3854106067
 C        -4.7071377988       -1.2738740694        1.1380640013
 C        -5.2151921813        0.6378594570        3.4727178984
 C        -3.8848341344        2.5460256917        2.2529267952
 O        -2.4397356754       -0.7072744859        3.6677750225
 O        -2.9883787292        0.2863778752        0.5458651900
 C        -4.3430650206       -2.2990504874        2.1880297974
 C        -4.2725316611       -3.7442888853        1.5452970601
 C        -3.7281600248       -4.7768192940        2.5919127511
 C        -2.1762015464       -4.4713909388        2.7443635001
 C        -1.3615704744       -4.8006166541        1.4763310545
 O        -4.6545328457       -4.0022675903        0.4173655145
 O        -1.5905576635       -4.0109492208        3.6805585250
 C        -4.5940162899       -4.6799066217        3.9306013277
 C        -4.0562908100       -6.1933117415        1.9535168867
 C         0.0629018085       -4.1128753591        1.4659254769
 C         0.0522747351       -2.7768501550        0.7083410839
 C         1.3918155432       -1.9784133582        0.4819232770
 C         1.5423928896       -1.7770644163       -1.1158605423
 C         3.0668012700       -1.9878131755       -1.6745561183
 C         1.3702823277       -0.5299288664        1.0790397301
 C         2.6725149794       -2.6961147675        1.0379872269
 O        -1.0059111910       -2.4134801585        0.2333270206
 O         0.6463171100       -1.3947623450       -1.8295122436
 C         3.0572472489       -2.5646088620       -3.0951759234
 C         2.0414766629       -3.7051620090       -3.2161255744
 C         1.9402871925       -4.3640703445       -4.7430612660
 C         0.6303730984       -3.6784633527       -5.2089608996
 C        -0.6986385180       -4.4136061119       -4.9446197224
 O         1.2014825689       -3.9025588978       -2.3726703951
 O         0.5790352157       -2.5857817694       -5.7111242453
 C         3.1083414231       -3.9267692688       -5.7607515627
 C         1.9043562466       -5.8644001231       -4.6543677491
 C        -1.8760761053       -3.4763711916       -5.1166204402
 C        -1.9304606003       -2.2454520267       -4.2785743907
 C        -2.6968910987       -0.9273783928       -4.8833312393
 C        -3.2459965815       -0.1038290127       -3.6639397009
 C        -3.7015087583        1.3555729769       -3.9157250316
 C        -1.3969736882       -0.1094716701       -5.2630197043
 C        -3.7631694008       -1.2188149181       -5.9945411922
 O        -1.2845517617       -2.0536754438       -3.2697482590
 O        -3.3395159443       -0.5110033931       -2.5075185864
 C        -3.1651010206        2.2674443025       -2.7359726452
 C        -1.6085130165        2.2613799964       -2.6091743376
 C        -0.8137696936        3.5414804302       -3.1732515667
 C        -1.0231204772        4.6296257546       -2.0512238108
 C        -0.4620462048        6.0150272681       -2.4656817472
 O        -0.9752324749        1.3720101806       -2.1166846859
 O        -1.4360277667        4.3590670032       -0.9556176565
 C         0.7466352236        3.3294498831       -3.1396721267
 C        -1.1415453849        3.9084082021       -4.6880058121
 H         1.5269055415        7.3033124923        1.9009523347
 H         1.5622826216        8.2351510322        0.4695364320
 H         0.6215762788        6.7431386017        0.5403222322
 H         1.9262485476        3.9153518843        1.6662810495
 H         3.4068835658        3.1561323062        1.9534274685
 H         5.5106429367        5.9323108139       -0.3700684865
 H         4.3047270191        4.6146475921       -0.5788852195
 H         5.6802494498        4.5733648935        0.7810011524
 H         4.0398610249        7.7789461500        2.3815522576
 H         5.6094027015        7.0001663486        2.2002161171
 H         4.9809860182        8.0445646217        0.8969835880
 H         3.4778711781        3.8535208474        4.4062521115
 H         1.7351359327        3.9275212245        4.2865065629
 H        -0.0099182078        0.6986963822        3.7330590533
 H        -0.4503439026        0.0282968661        5.1730709285
 H         2.0683389430       -0.5102674603        6.6321886447
 H         3.0384008427       -0.5305747543        5.2665620524
 H         1.4896081663       -0.7508150300        4.9845062758
 H         2.4668957607        1.5711163750        7.5853673430
 H         3.8833410886        1.4922662705        6.6291775723
 H         2.9177939625        2.9495856710        6.6785578038
 H        -1.8107210282        2.3779093812        3.6091862244
 H        -2.3037159458        1.7723394802        5.2625107059
 H        -5.7398204242       -1.1102348328        0.9276524243
 H        -4.2800496773       -1.7127600047        0.1964717903
 H        -6.1592543882        0.7761967426        2.9728136675
 H        -5.2154172445        0.9772405166        4.4689446332
 H        -5.0257323939       -0.4045455266        3.7250667018
 H        -4.8821430258        2.7853202670        1.8031501444
 H        -3.5596094121        3.1245766968        3.1464905949
 H        -3.1302450737        2.7400368500        1.4792428187
 H        -3.4356111651       -1.9921423457        2.7398159035
 H        -5.0845955794       -2.2613203363        2.9582727742
 H        -1.2266909983       -5.8731031522        1.3479447502
 H        -1.9093462229       -4.6359973056        0.5357336121
 H        -4.5520400588       -5.6747620892        4.4357963988
 H        -5.6701148989       -4.5923711261        3.7030638540
 H        -4.3333991433       -3.8576854740        4.5815124910
 H        -5.1709038516       -6.3170001998        1.9764149721
 H        -3.6803357734       -6.0911330922        0.9538946253
 H        -3.7923592933       -7.0147073921        2.5615932613
 H         0.7816238753       -4.7519688138        1.0196802561
 H         0.3649678092       -3.9438502752        2.5168814912
 H         3.6050739059       -1.0656338770       -1.6836621203
 H         3.4917932068       -2.6933940972       -0.9908780958
 H         0.6184905755        0.2344353880        0.7016690892
 H         2.4063521711       -0.2191630179        0.7837227587
 H         1.2209679753       -0.4242599615        2.1674345061
 H         3.6515031564       -2.1575328587        0.8330185134
 H         2.7156062824       -2.9077149868        2.1316743061
 H         2.8223924110       -3.7381859764        0.6386692126
 H         2.9389703767       -1.8635741110       -3.8606226016
 H         4.1405262670       -2.9438885632       -3.1581830215
 H        -0.9127574938       -5.1859613133       -5.7084829796
 H        -0.6593216878       -4.9659297976       -3.9961906803
 H         3.2213557436       -2.8215516774       -5.6735343246
 H         2.9115125729       -4.0394564247       -6.7858372426
 H         3.9967044356       -4.3750439101       -5.4566554896
 H         1.4575622640       -6.4080061753       -5.5349778866
 H         2.9273092288       -6.3543930444       -4.6811609416
 H         1.3340652709       -6.2178716210       -3.8299868759
 H        -2.7093526123       -4.2296741323       -4.9611622278
 H        -1.9834543317       -3.1586822565       -6.1473176338
 H        -3.4171657354        1.8662193237       -4.8162426260
 H        -4.8402692833        1.2485816840       -3.7181023457
 H        -0.9247228964        0.1869689495       -4.3565333025
 H        -1.6340146019        0.6749614205       -5.9345046604
 H        -0.7147278877       -0.7694897419       -5.6600209991
 H        -3.9266575236       -0.3646397938       -6.6248524055
 H        -3.3363622667       -2.0189023405       -6.7602276137
 H        -4.7188423988       -1.4774762579       -5.5043107340
 H        -3.5688497229        3.2699152759       -2.7656353951
 H        -3.5819346076        1.8249894836       -1.8115914415
 H         0.4784909028        5.9763197940       -3.0209519676
 H        -1.2498353679        6.5495701614       -2.9380812787
 H        -0.3497791545        6.5331156316       -1.5504564204
 H         1.1161400767        4.1399087094       -3.6886804842
 H         1.1226233797        2.4202201393       -3.6028199771
 H         1.1702127980        3.2932000123       -2.1935696982
 H        -0.6860863417        4.9050483680       -4.9742823058
 H        -0.9030127441        3.0618927873       -5.3571636112
 H        -2.2460191581        4.0341276636       -4.8659252685
 Na       -1.5718507237       -0.7461597556       -1.2309282573
