155

 C         1.4796753622        7.8690095454        1.7616489616
 C         2.2729790258        6.8636205213        0.9106169597
 C         3.6497523612        6.2733241547        1.3621476839
 C         3.3230093632        5.4434107643        2.6454991755
 C         3.6222725160        3.9784858754        2.9619129408
 C         4.1844307426        5.5506285173        0.1467405396
 C         4.6736866323        7.3509524659        1.8152537600
 O         1.7546617003        6.3122083758       -0.0418302490
 O         2.8260320207        6.1166331159        3.5762486687
 C         2.9484691122        3.5411409753        4.2001086881
 C         2.6215535029        1.9665014154        4.2688419749
 C         1.9553722519        1.4559641721        5.6173961660
 C         0.3951449963        1.8873779573        5.3969783612
 C        -0.5792514757        0.7056101109        4.9066672664
 O         2.9502158207        1.1902298630        3.3935252180
 O        -0.0089651152        3.0442805852        5.3575541018
 C         2.1434702056       -0.1100036152        5.8843969293
 C         2.6183663826        2.2333654728        6.7967146526
 C        -1.8069414556        1.3018986944        4.1808886514
 C        -2.7976553500        0.3235183858        3.5855030402
 C        -3.5827064614        0.8656001762        2.3090046540
 C        -3.3565244845       -0.0190002209        0.9335912657
 C        -4.2386994977       -1.0927203911        0.5003584679
 C        -5.0214130767        0.6081309279        2.5957822977
 C        -3.4928730124        2.3853620212        1.9014402172
 O        -2.9342986996       -0.8311493286        3.9538270268
 O        -2.4987542821        0.4017320603        0.2125111825
 C        -4.4678884788       -2.2333328820        1.5855407402
 C        -3.9112350962       -3.6962919635        1.1762041781
 C        -3.5675751476       -4.7682748272        2.2262511778
 C        -2.0657168880       -4.6620691037        2.6404154383
 C        -1.0698361335       -5.1225292153        1.5196207613
 O        -3.6953820322       -3.8728396375       -0.0144131994
 O        -1.7418821655       -4.3806456279        3.7599331536
 C        -4.3873791550       -4.5456372912        3.4896810712
 C        -3.9582488855       -6.1397675751        1.5451578018
 C         0.2473898112       -4.2930688766        1.3851881223
 C         0.0949751203       -2.9203971261        0.6795665262
 C         1.2057166948       -1.8433746379        0.7223204419
 C         1.5061635749       -1.5345082061       -0.7967954050
 C         2.7878252472       -2.0052598946       -1.5654233978
 C         0.7116569270       -0.5465756109        1.5870119670
 C         2.4199866127       -2.4260136059        1.5171452076
 O        -0.9265394263       -2.6263814529        0.0862458477
 O         0.5890588629       -1.0276576101       -1.4552330699
 C         2.5386867683       -2.4368693893       -3.0316672450
 C         2.3021885669       -3.9428041914       -3.1555866837
 C         2.0949244009       -4.4395852254       -4.6812447320
 C         0.6983590501       -3.7917049532       -5.3591907364
 C        -0.6193459391       -4.3787854485       -4.8585363331
 O         2.3216991729       -4.6921312630       -2.2136339980
 O         0.7557861904       -2.7877894141       -6.0409141862
 C         3.2979063713       -4.0697994648       -5.5180122984
 C         1.8942335362       -5.9222733804       -4.4587164289
 C        -1.8237499948       -3.6725629663       -5.3267058327
 C        -2.1978639121       -2.4338788868       -4.3917421141
 C        -2.8107745552       -1.0153194202       -4.8685310267
 C        -3.5246080093       -0.0498562286       -3.8016928777
 C        -3.5114640286        1.5210202005       -4.1227535889
 C        -1.5171726922       -0.4095315536       -5.4158431954
 C        -3.6629873564       -1.2748743152       -6.0965446853
 O        -1.7795718993       -2.5127753140       -3.2587331214
 O        -3.9907418176       -0.4407196389       -2.7116728691
 C        -2.9501430683        2.2942790108       -2.9398201922
 C        -1.3991858804        2.1923454268       -2.7220842235
 C        -0.6518648096        3.5233704982       -3.1088023122
 C        -1.0527007675        4.5622972909       -2.0653526613
 C        -1.3516220303        6.1113843236       -2.3257799153
 O        -0.8160864647        1.2331359337       -2.3357537279
 O        -0.9021498559        4.1749001899       -0.9109574433
 C         0.8670790971        3.2277848129       -2.8538062618
 C        -0.9884159737        3.9049731726       -4.5801554545
 H         1.6095293607        7.6821834606        2.7798406341
 H         1.6820908828        8.8969114995        1.5978405619
 H         0.4676356762        7.7076814694        1.5870307127
 H         3.3147632300        3.3172537897        2.1925381817
 H         4.7395222569        3.7958310108        3.0314209016
 H         4.8846760669        6.2835286681       -0.3564600822
 H         3.2853245058        5.3267875152       -0.4709035275
 H         4.8309894941        4.6147451991        0.3185415521
 H         4.5577795840        7.6511596694        2.8539311718
 H         5.7541222111        7.2274848028        1.7376939019
 H         4.4497209480        8.2602038753        1.2290520821
 H         3.4249349426        3.9507953836        5.0198279085
 H         1.9542774316        3.9656347019        4.3359406168
 H         0.0384454452        0.1287874794        4.1493369284
 H        -0.8978278091        0.0226278914        5.7267851720
 H         1.5526586378       -0.4652379006        6.7537155639
 H         3.1513014353       -0.3570585512        6.0579036901
 H         1.6566684537       -0.7255101772        5.0611367894
 H         2.2974263436        1.8579675885        7.7262065559
 H         3.6953497196        2.1067985925        6.7048592657
 H         2.4116802098        3.2864115585        6.6942225763
 H        -1.5736634888        2.0037393510        3.3665165779
 H        -2.3862076534        2.0398079894        4.7488704822
 H        -5.1595011138       -0.7864209560       -0.0830429968
 H        -3.7099684805       -1.6062701737       -0.3293332558
 H        -5.4773295728        0.2610737511        1.7313102694
 H        -5.6607923088        1.5338168261        2.7664571421
 H        -5.2899922348       -0.1601375443        3.3112062492
 H        -4.2501344577        2.4895892506        1.0810415218
 H        -3.8959336580        3.1214503217        2.6532679105
 H        -2.5675357455        2.6506183855        1.3551506775
 H        -3.7845652534       -1.9125679084        2.3400131383
 H        -5.3929442900       -2.2235560955        2.1647905112
 H        -0.7711037886       -6.1678837998        1.6800129212
 H        -1.5461489786       -5.0932017785        0.5070913705
 H        -4.2210627548       -5.2828496634        4.2340394917
 H        -5.5244260446       -4.4680086231        3.3074336665
 H        -4.0282382679       -3.6474456498        4.0619311234
 H        -5.0790024874       -6.1410426273        1.3719859183
 H        -3.4087438459       -6.1946895741        0.6088696125
 H        -3.5836524401       -6.9734405339        2.1245058737
 H         0.9024150171       -4.8745388068        0.6783496263
 H         0.6181903070       -4.1835219183        2.3642839700
 H         3.4543447289       -1.0972533014       -1.3993673080
 H         3.1657521519       -2.8493436687       -0.9995799838
 H         0.2572547993        0.1642199269        0.9411339275
 H         1.5282600243        0.1092557272        1.8881044585
 H         0.2258542915       -0.8288218037        2.5707173412
 H         3.3188750844       -1.8134779586        1.4990901267
 H         2.3309698830       -2.6340493184        2.6426493469
 H         2.8369492783       -3.3974642988        1.1856621881
 H         1.7367701228       -1.7991824511       -3.6346019562
 H         3.4665497590       -2.2942750039       -3.5448302597
 H        -0.6633179815       -5.4690039096       -5.1319924375
 H        -0.6262136259       -4.3497434185       -3.6996162950
 H         3.4208657839       -3.0232225019       -5.6072873531
 H         3.3466187265       -4.6505244397       -6.3989962298
 H         4.2484577202       -4.2695810019       -5.0061009800
 H         1.4840638041       -6.5830135639       -5.2325099755
 H         2.8133417876       -6.3756887808       -4.1087081040
 H         1.1119995577       -6.1430504462       -3.6254097617
 H        -2.7324402163       -4.1949408845       -5.1485314435
 H        -1.6951727893       -3.5837968196       -6.4172183185
 H        -3.0446222744        1.8845568483       -5.0885453023
 H        -4.5217020325        1.8021157949       -4.3571875429
 H        -0.9009465022       -0.2265991324       -4.6034499976
 H        -1.6563135441        0.4481030383       -5.9696298246
 H        -1.1718251965       -1.2114187969       -6.0246047059
 H        -3.5948626296       -0.4951209565       -6.8671275596
 H        -3.3412903666       -2.2210274414       -6.5362905713
 H        -4.7402190159       -1.4522857807       -5.8056750358
 H        -3.2707784492        3.3176051764       -2.9728299608
 H        -3.3291176614        1.7274322499       -2.1437202303
 H        -2.0944122770        6.2855787791       -1.5553314957
 H        -0.3767520651        6.5879076051       -2.2157399348
 H        -1.6726982325        6.4003417604       -3.2914484887
 H         1.5348842407        3.9174365997       -3.2636948308
 H         1.0992432910        2.2796464228       -3.2595985351
 H         1.1000370835        3.3233188405       -1.7834093037
 H        -0.5615203069        4.8391683012       -4.8919919714
 H        -0.4376141540        3.2803468328       -5.3282937024
 H        -2.1120908910        3.9787204426       -4.7077195863
 Na       -1.6403273837       -0.9915245822       -1.4699125248
