155

 C         1.3254145723        9.1611821106        3.8964996978
 C         1.4212426170        8.0328837986        2.8978524735
 C         2.9308376697        7.4702485665        2.6618110301
 C         3.1803119365        6.2299952131        3.7263974412
 C         2.3798496495        4.9054648947        3.4873922990
 C         3.0322287198        6.9779185840        1.2212196091
 C         3.9180781018        8.6382385002        2.9375590054
 O         0.4644910151        7.7421867430        2.2677614836
 O         3.9313553297        6.4171298644        4.6513927709
 C         1.9362209606        4.1760156022        4.7930766386
 C         1.1426653743        2.9827405135        4.6490757808
 C         0.4397982809        2.3481095180        5.8977742315
 C        -1.0674572117        2.5439508929        5.2516857486
 C        -1.6573566815        1.3625284145        4.4228532088
 O         0.9546911818        2.4415363175        3.5942667302
 O        -1.6642132519        3.5816330756        5.4325626291
 C         1.0491572723        0.8902410611        6.0230316866
 C         0.3553362493        3.0415829317        7.2708753277
 C        -2.3870582942        1.6695704004        3.1106094928
 C        -3.4118210569        0.7136559423        2.6313614753
 C        -4.2209906653        0.9114073031        1.1888420506
 C        -3.6933212832       -0.2540806714        0.3497871143
 C        -4.3217644358       -1.5865860777        0.4205710285
 C        -5.7532602792        0.8019761743        1.4937591164
 C        -3.8484823283        2.3736940668        0.6054057880
 O        -3.7699264883       -0.1677226909        3.3870191080
 O        -2.5022615684       -0.0908173567       -0.0858078568
 C        -3.4266830848       -2.6089825124        1.1165565552
 C        -4.1153544655       -3.9444479029        1.2073859918
 C        -3.2509352883       -5.3027772302        1.5151106550
 C        -1.7645762651       -4.9955409834        1.6852393837
 C        -0.7506457530       -5.4456033188        0.6261795746
 O        -5.1515724599       -4.1224818069        0.5964295041
 O        -1.3827775541       -4.3992164842        2.6714129382
 C        -3.8723220635       -5.8766243896        2.8115526932
 C        -3.5558776908       -6.4461657410        0.4922662847
 C         0.6447904145       -4.7548431173        0.6629637516
 C         0.7211059282       -3.3334326904        0.1403750709
 C         2.0886869514       -2.5174115688        0.2234281019
 C         2.2465170004       -1.9174373413       -1.3243614537
 C         3.4542467462       -2.2458580162       -2.2428512803
 C         1.7833325685       -1.3019757175        1.1427139238
 C         3.2870262402       -3.3330797169        0.7600609733
 O        -0.2946018497       -2.7856533713       -0.2029999312
 O         1.3908970630       -1.1521768750       -1.7848711558
 C         2.9752624780       -2.8322075455       -3.6001969837
 C         2.6622167801       -4.3639686249       -3.3276931535
 C         2.5025856258       -5.3030849722       -4.5636264554
 C         1.1591802502       -4.9455265751       -5.3453660769
 C        -0.1168398375       -5.4066130076       -4.7372442916
 O         2.7316194652       -4.8187110768       -2.2061155861
 O         1.0852804820       -4.3893639787       -6.4248918832
 C         3.8424656631       -5.2165239023       -5.3672092509
 C         2.5004393323       -6.9097476406       -4.1821658110
 C        -1.0760623844       -4.2675424165       -5.1100660524
 C        -0.9418090631       -2.9150173343       -4.4115619179
 C        -1.5914211836       -1.6054354276       -5.2186885121
 C        -2.0686730997       -0.5140691600       -4.1779612170
 C        -1.7311503609        0.9437395390       -4.3834359341
 C        -0.5251648905       -1.0476272493       -6.1043987148
 C        -2.8963403877       -2.0038176409       -5.9612328499
 O        -0.2209578192       -2.6930465359       -3.4259393379
 O        -2.7375526338       -0.8496192294       -3.2154737178
 C        -2.2174138195        1.8239882609       -3.2297219810
 C        -1.0305346867        2.4339116377       -2.4086157871
 C        -0.8643319705        3.9639535894       -2.3216661919
 C        -1.7397227599        4.6086280217       -1.1754628024
 C        -1.1220920901        4.7598811383        0.1475756395
 O        -0.1651861796        1.7105226511       -1.9864598433
 O        -2.8616396857        4.9399107951       -1.4678438719
 C         0.6634033991        4.4143069175       -2.2362294976
 C        -1.3938915869        4.6814724382       -3.6091784019
 H         2.0424586199        9.1838323008        4.6419157407
 H         1.3732715562       10.0904677254        3.3071683262
 H         0.3331098051        9.1068633087        4.4131340177
 H         1.4859582921        5.1304155835        2.9765858910
 H         2.9446595329        4.2286826084        2.8331742978
 H         3.0084123700        7.8545949533        0.6136779775
 H         2.2098738374        6.3607293648        1.0325036514
 H         3.8674939603        6.3810842269        0.9359858880
 H         3.9535955847        9.2202063560        3.8689495508
 H         4.9242493214        8.2518046955        2.7588260253
 H         3.6837415181        9.3810462633        2.1772776285
 H         2.7876959643        3.8353885840        5.2866557411
 H         1.5276978680        4.8676683941        5.4455334285
 H        -0.7913210292        0.7749509481        4.1302001229
 H        -2.3008628927        0.8118497757        5.2726112004
 H         0.5700222929        0.3981884133        6.9276052507
 H         2.0004041231        0.8902638144        6.3830361870
 H         0.9363902371        0.2825639175        5.1177133565
 H        -0.4853946758        2.5530875094        7.8878786373
 H         1.2321070847        2.8751803418        7.9186762675
 H         0.1271114412        4.1152477384        7.1832657951
 H        -1.7617061589        1.8674630245        2.2620512016
 H        -2.9141647581        2.5752099305        3.2720630704
 H        -5.3621081277       -1.5808976898        0.7829348902
 H        -4.3386973048       -1.8679443318       -0.6627123897
 H        -6.2019738418        0.9011473625        0.5163349355
 H        -5.9405108555        1.5961939734        2.1933809767
 H        -6.1844305309       -0.0970280151        1.8627985352
 H        -4.0337967286        2.2813051671       -0.4441495536
 H        -4.3840020491        3.1498298387        1.0608433526
 H        -2.8122120104        2.5679752252        0.7831747360
 H        -2.4511212311       -2.7397253012        0.6268868568
 H        -3.1633048087       -2.4490646706        2.1441583797
 H        -0.5329138494       -6.4797878513        0.7899571789
 H        -1.2949235209       -5.3965854100       -0.3568521461
 H        -3.4881342488       -6.8378688746        2.8666882407
 H        -4.9057566984       -6.1016452853        2.5862717078
 H        -3.6666226413       -5.3802137617        3.7421285826
 H        -4.6431538233       -6.4672727018        0.3702861328
 H        -3.1754711025       -6.2201926053       -0.5502689088
 H        -3.2544083485       -7.5094820653        0.7330805855
 H         1.4474166979       -5.3227616569        0.1957792784
 H         1.0588099957       -4.8379967768        1.7068024143
 H         3.8214846508       -1.1974078776       -2.4859633018
 H         4.2369353004       -2.9142141095       -1.8261116672
 H         0.9439793797       -0.7731116702        0.6807714025
 H         2.6975937390       -0.7187716456        1.3665859220
 H         1.4034388043       -1.8736521932        1.9989168781
 H         4.0277366311       -2.6750492910        1.1412389147
 H         2.9019768511       -3.9773262882        1.5151824509
 H         3.5485610984       -3.9609400032       -0.0634350505
 H         2.0990423309       -2.3275573078       -3.8579480461
 H         3.7256513486       -2.7580636384       -4.4764082968
 H        -0.4368656031       -6.4064176167       -5.0938663705
 H         0.0153496164       -5.5109259329       -3.6145481313
 H         3.9404114805       -4.4330348514       -6.0730151642
 H         3.8113134835       -6.1030368879       -6.0224995560
 H         4.6515809860       -5.3180598049       -4.6326967954
 H         2.5954446189       -7.4453398628       -5.1282670015
 H         3.2690111291       -7.0752000874       -3.4873096746
 H         1.4284745405       -7.0297553020       -3.8145301478
 H        -2.0845696461       -4.6912932541       -4.8839662965
 H        -0.9801871112       -4.0990723170       -6.1645092812
 H        -0.6706406868        0.9859323379       -4.4424087174
 H        -1.9707466918        1.1848695233       -5.4216705745
 H         0.3413437657       -0.6381114616       -5.5088623263
 H        -0.8901149143       -0.1054408284       -6.6330973004
 H        -0.1510826155       -1.7301437936       -6.9615036335
 H        -2.9425389613       -1.3208972551       -6.7926051253
 H        -2.9921397587       -3.0776368779       -6.4932286322
 H        -3.6727323126       -1.8505610802       -5.2426350672
 H        -2.8311258686        2.6396327412       -3.5599510896
 H        -2.7778967205        1.1382903760       -2.5644380462
 H        -0.7907509695        5.7510001458        0.3841566812
 H        -1.8747748850        4.6116428328        0.9028915701
 H        -0.3244657265        4.0680632965        0.0534374020
 H         0.6813863324        5.4895033671       -1.8748568987
 H         1.1498995797        4.4425599563       -3.2020656167
 H         1.2356787168        3.6798147426       -1.6203761660
 H        -1.3210593071        5.7180660261       -3.4657500803
 H        -0.8369429075        4.3268899235       -4.4385530472
 H        -2.3995421346        4.3989722332       -3.7741647167
 Na       -0.8556171333       -0.7982885777       -1.6819269706
