155

 C         0.8829885531        9.4883825939        4.3770871372
 C         1.2673813873        8.3211955522        3.4603204204
 C         2.8750649700        7.7508698987        3.3624155582
 C         2.9166712860        6.4538341258        4.1989337100
 C         2.1577843543        5.2246135374        3.7237528221
 C         3.0624034767        7.2019669718        1.9086601505
 C         3.9643257510        8.8462392187        3.7366650995
 O         0.4541672134        7.7492772752        2.7310799372
 O         3.5509728757        6.3314533367        5.2157554896
 C         1.0517689528        4.8302088469        4.7494648814
 C         0.4130221865        3.4814927489        4.5483391565
 C        -0.2633778544        2.7868519430        5.8007200464
 C        -1.7959445793        2.8612528930        5.2638437967
 C        -2.3646237925        1.5797885427        4.5319005951
 O         0.4616288217        2.8519387904        3.5019210689
 O        -2.4770295491        3.8345940344        5.4433720088
 C         0.4030704663        1.3602181732        5.8240219568
 C        -0.2105822446        3.5158340628        7.2241706606
 C        -3.3113361190        1.9650929656        3.3642301285
 C        -4.0307647662        0.8028437957        2.8703618900
 C        -4.4285705262        0.5887343500        1.4133687463
 C        -3.5077124151       -0.4251129096        0.6502247436
 C        -4.0533633292       -1.9044245384        0.4290333433
 C        -5.9020297924        0.1915240664        1.2870512923
 C        -4.2970170736        2.0692830493        0.7586186328
 O        -4.3421812773       -0.0188812432        3.7351982027
 O        -2.4149825995       -0.0883465569        0.3175931021
 C        -3.1356884702       -2.9167610391        1.1137241071
 C        -3.4747125849       -4.3040809414        0.7888308797
 C        -2.8721728471       -5.4914312833        1.7434147744
 C        -1.2297336594       -5.2584708795        1.6137589169
 C        -0.6157783799       -5.5643018955        0.1784424114
 O        -4.0806933683       -4.5402425829       -0.2317062834
 O        -0.5908528340       -4.8392366501        2.5446880626
 C        -3.3088780360       -5.2892475139        3.1292594982
 C        -3.3818692730       -6.8493631022        1.2113334553
 C         0.7287037002       -4.8015793636        0.0464013247
 C         0.5118075147       -3.2933735699       -0.1973020504
 C         1.7919292528       -2.3162402866       -0.1008584906
 C         2.2180696061       -1.9184315905       -1.7004183843
 C         3.5239919037       -2.2167864155       -2.3300020229
 C         1.2259588704       -0.9905718070        0.6047943749
 C         2.8150409308       -2.9417396041        0.8523389035
 O        -0.5361078384       -2.8441230563       -0.5889007826
 O         1.3574406330       -1.3354522283       -2.3583112593
 C         3.5313515251       -2.9871457189       -3.6230631309
 C         3.0406822700       -4.4998436184       -3.2963953825
 C         2.6692402880       -5.4980065091       -4.4686999965
 C         1.5243140602       -4.8338050369       -5.3322020805
 C         0.1305805381       -5.4117785089       -5.0998201816
 O         2.8816451651       -4.8488547400       -2.1464519952
 O         1.6243265099       -3.9424140916       -6.1724721900
 C         3.9532518656       -5.6364115073       -5.2535252505
 C         2.2362006631       -6.9194633320       -3.9746642856
 C        -1.0231144011       -4.4398467975       -5.4866059325
 C        -0.8742363722       -3.0610744128       -4.8301203520
 C        -1.3819466487       -1.7552008150       -5.5668104386
 C        -1.6057679538       -0.4550679017       -4.4816007260
 C        -1.0093744829        0.9329548007       -4.7536060266
 C        -0.1611059437       -1.2868880292       -6.4128498905
 C        -2.6921671496       -1.9393037026       -6.4598968820
 O        -0.3606665286       -2.9768044749       -3.7099633678
 O        -2.2721118965       -0.7307338742       -3.5086960479
 C        -1.4978922814        2.2488707385       -4.1333598154
 C        -0.8475742892        2.3814561357       -2.7377934462
 C        -0.4099416663        3.7801014469       -2.2361393427
 C        -1.4212442862        4.0761743481       -0.9569377253
 C        -0.8271935541        4.5067351046        0.3478616307
 O        -0.5291464641        1.4299553239       -2.0477481101
 O        -2.5876958987        4.1294697607       -1.2305161192
 C         1.0679195222        3.7957963590       -1.9388453391
 C        -0.6701620470        4.8630232744       -3.2596414305
 H         0.3239440189       10.2418980018        3.8985590884
 H         0.2025800781        9.1098318414        5.1393545949
 H         1.7630021690        9.8794378013        4.8897006006
 H         1.6719328571        5.3184178273        2.8002152917
 H         2.7977408795        4.3770172977        3.6404463091
 H         3.3977376635        7.9259830984        1.2004833609
 H         2.2239679855        6.8726056482        1.4824811399
 H         3.7998424905        6.4913075904        2.0225429487
 H         4.0884017444        8.9428354982        4.8460499810
 H         4.9624877133        8.5734889573        3.4236117380
 H         3.6521628038        9.7485964938        3.1820096351
 H         1.4348677234        4.8706769412        5.7159114183
 H         0.3344272454        5.5794845860        4.7504823070
 H        -1.5889640751        0.8851521711        4.2618326688
 H        -2.9248516869        0.9708620943        5.2691621151
 H        -0.3561472354        0.5753687413        6.1625076616
 H         1.2896066302        1.3141067885        6.3487781289
 H         0.6228539760        1.0206674565        4.7729458822
 H        -0.7758545234        2.9115850736        7.9215889140
 H         0.7737120186        3.7471388562        7.5490804615
 H        -0.6645915322        4.4749157080        7.2078617446
 H        -2.6483352602        2.4695531880        2.5963353683
 H        -3.8948511336        2.8125850362        3.7785300798
 H        -5.0965827913       -2.0128743531        0.5639636570
 H        -3.8803676776       -2.0292572789       -0.6785545329
 H        -6.3013678989        0.0678532122        0.2195717980
 H        -6.4663766998        0.9662333565        1.7268980137
 H        -6.0470927802       -0.6339237762        1.9494736796
 H        -5.0513289714        2.2729318414        0.0348047091
 H        -4.7550076453        2.6247691159        1.5206041602
 H        -3.3146325122        2.4045302573        0.5056767276
 H        -2.0668933587       -2.9347177888        0.7407676416
 H        -2.9293324961       -2.6073352669        2.1643091475
 H        -0.4625524604       -6.6504707972        0.2978771307
 H        -1.3000088737       -5.4126934638       -0.6534048551
 H        -2.9906615028       -6.2188349109        3.5994684300
 H        -4.3599233914       -5.0890035133        3.2174261688
 H        -2.8548791197       -4.4323767637        3.5727257298
 H        -4.4346844372       -6.8730463277        1.3194476382
 H        -3.3114004785       -6.8666301373        0.0641750037
 H        -2.7655826727       -7.7298815564        1.5765524708
 H         1.2084420390       -5.0418277368       -1.0125754214
 H         1.4382003551       -5.1172147181        0.8247177188
 H         4.0254626559       -1.2021146106       -2.5161315137
 H         4.2632636244       -2.7718948848       -1.6894482328
 H         0.4079206497       -0.5055838270        0.0675462182
 H         2.1603690281       -0.4058214204        0.5398303910
 H         1.1021458110       -1.1552922277        1.6453584927
 H         3.3632396194       -2.0844071214        1.2549045139
 H         2.1930620659       -3.2197361980        1.6379173598
 H         3.5660478283       -3.6051583796        0.4806797879
 H         2.9888255757       -2.5799969450       -4.4178543864
 H         4.5492836355       -3.0909138223       -3.9163351563
 H         0.1417922043       -6.3983259261       -5.6131981811
 H         0.0112233423       -5.6024335436       -3.9829883020
 H         3.8970726770       -5.0092865965       -6.1560232433
 H         4.1112924169       -6.7376715544       -5.5092723196
 H         4.8595994484       -5.2441917081       -4.7447662693
 H         1.5853986927       -7.3183793034       -4.7503282822
 H         3.0761177407       -7.5275583913       -3.8040598863
 H         1.8049100418       -6.7069107771       -2.9299018814
 H        -1.9765418439       -4.8709214389       -5.1820917485
 H        -1.0577158541       -4.3420042137       -6.5780573091
 H        -0.0425601465        0.8482845412       -4.3779949432
 H        -0.9725855529        1.1214561085       -5.8159766461
 H         0.7432779138       -1.1000720282       -5.7659127507
 H        -0.2718772884       -0.2808110314       -6.9477959487
 H         0.1955620667       -2.0733505793       -7.1977178918
 H        -2.6278934498       -1.4760074319       -7.4419353261
 H        -2.9292105246       -3.0978640866       -6.4002202886
 H        -3.5375575973       -1.5033744115       -6.0130527617
 H        -1.0468295807        3.0349611442       -4.7167486867
 H        -2.5778904455        2.2449055236       -4.2347340050
 H         0.2283376575        4.5406500296        0.1687306210
 H        -1.2156147498        5.5562187111        0.4600371512
 H        -1.1554785652        3.9201069695        1.2003037803
 H         1.3904388728        4.7448786985       -1.4391835591
 H         1.6012074753        3.5864127079       -2.9063140387
 H         1.3607563824        3.0186647499       -1.2495471176
 H        -0.2145037612        5.7908463096       -2.8827410045
 H        -0.3497899020        4.7575595825       -4.2646232512
 H        -1.6921788436        5.1483270985       -3.2601570325
 Na       -1.1838851579       -0.7438436518       -1.6344697530
