155

 C         0.6274485749        9.6043729895        4.5839425915
 C         1.2667375420        8.7506862583        3.5662923777
 C         2.6217189883        7.9533272617        3.7879336115
 C         2.2652559021        6.7451855936        4.6883224077
 C         1.4009795596        5.5729708388        4.1011563369
 C         3.0734645779        7.3670639106        2.4353690610
 C         3.6633131870        8.8577686966        4.4082328639
 O         0.6978342430        8.5902124817        2.4317774939
 O         2.7557833405        6.6661682789        5.7927680270
 C         0.8543862474        4.7788102549        5.3120314983
 C         0.0694420166        3.5369310797        4.9267814874
 C        -1.0638185585        3.0199580653        5.8479718334
 C        -2.2378235989        2.6545550380        4.8499078025
 C        -2.1199672602        1.4691123675        3.7995910320
 O         0.3379210406        2.8606665383        3.9166246499
 O        -3.1152855203        3.4540914326        4.7502561558
 C        -0.5048859224        1.6968321132        6.4696453987
 C        -1.6015635888        3.9987634190        6.8755600976
 C        -3.2521137878        1.5344274613        2.6986040112
 C        -3.7077761062        0.2476997478        2.1932011923
 C        -4.4857350295        0.1441267047        0.7668054400
 C        -3.6368455993       -0.7253588405       -0.1134707481
 C        -4.0582741026       -2.1289170777       -0.5348556056
 C        -5.8550435943       -0.4153366223        1.1860422266
 C        -4.6754477218        1.5727060211        0.1926346822
 O        -3.3709225526       -0.7422016860        2.8226562660
 O        -2.6863412293       -0.2677227581       -0.7546604861
 C        -3.8454158312       -3.0482154153        0.6829896966
 C        -3.0142778199       -4.3082792786        0.4340691876
 C        -2.4962616461       -5.0197386447        1.8294044631
 C        -0.9719086368       -5.0055965846        1.9072628667
 C        -0.2834822947       -5.5123863242        0.6145245469
 O        -3.0940991776       -5.0316624524       -0.5161409107
 O        -0.4043280883       -4.3734916836        2.7595633346
 C        -2.9938562238       -4.3230832338        3.0624069548
 C        -3.0422266892       -6.4981496408        1.9434439903
 C         0.9488235037       -4.6166260994        0.4032190016
 C         0.6687582762       -3.2565155944       -0.1623973344
 C         1.8852524196       -2.2407200306       -0.0990044130
 C         2.2228930377       -2.0360499595       -1.6273616234
 C         3.7561872308       -2.1452740365       -2.1321121099
 C         1.2512009141       -0.8682579770        0.4010331057
 C         2.9901964034       -2.7439875557        0.6924106365
 O        -0.4851011911       -2.8813062677       -0.4232081932
 O         1.4330627471       -1.7936068872       -2.4802699942
 C         3.7715272158       -2.8350387417       -3.4594707046
 C         3.1780612843       -4.2239980000       -3.2963994719
 C         2.8337807344       -5.1457840431       -4.4656351611
 C         1.5328157016       -4.5052261791       -5.3606548786
 C         0.1753841024       -5.1049290956       -5.0947450958
 O         3.0555609000       -4.7392238834       -2.1602348310
 O         1.6350466787       -3.5294442385       -6.0586917300
 C         4.1820363437       -5.2822722913       -5.2793842403
 C         2.4066475641       -6.5461998189       -3.9498901755
 C        -1.0792256976       -4.2319732104       -5.5018799756
 C        -1.2234716391       -2.8178336104       -4.7944418601
 C        -1.5330018263       -1.5153260131       -5.6793759553
 C        -2.0200655761       -0.4196856997       -4.7053550861
 C        -1.1962552494        0.9038030622       -4.5458690891
 C        -0.1951323631       -1.0721856016       -6.3791373954
 C        -2.6026481119       -1.8229537432       -6.8208910936
 O        -1.1445025909       -2.7447337729       -3.5968521784
 O        -3.0776845939       -0.5787703426       -4.1579250599
 C        -1.4053717943        1.8738044039       -3.4033867938
 C        -0.2926276601        1.9143602590       -2.3908380715
 C         0.1223325872        3.1957492755       -1.8123928527
 C        -1.0363565043        3.6253262765       -0.6861098611
 C        -0.6658703262        4.1949085293        0.7134781420
 O         0.1820466066        0.9039659354       -1.8976168523
 O        -2.1755016125        3.6445747367       -1.0465015800
 C         1.4862216362        3.0216577359       -1.1557571430
 C         0.2537431427        4.3644179791       -2.8334657726
 H        -0.4081096925        9.6093775344        4.3774126736
 H         0.8388677579        9.3187605002        5.6003412870
 H         1.0920628710       10.5618233835        4.4675233902
 H         0.5319370377        5.9634381824        3.5890007824
 H         1.9146144702        5.0078637644        3.4260361896
 H         3.7358930479        8.1299546929        2.0052259710
 H         2.3065413594        7.0431693187        1.8319666499
 H         3.6942627532        6.5069441383        2.6146709200
 H         3.0936874359        9.2594948134        5.2624836897
 H         4.5766883371        8.3026119720        4.5794554307
 H         3.8824925093        9.7162245609        3.7554070760
 H         1.6018592534        4.6402081133        6.0160524164
 H         0.2066881397        5.4786410271        5.7866753995
 H        -1.1531906629        1.4849097181        3.2513112518
 H        -2.1925994192        0.5799901455        4.3009010776
 H        -1.3131427285        0.9839413277        6.8003312149
 H         0.1520490309        1.9442761879        7.2430161204
 H         0.1619162811        1.1651442142        5.7185473265
 H        -2.3873811581        3.5855769878        7.4134682688
 H        -0.8169395113        4.2270463196        7.5958154111
 H        -2.0090225448        4.8836195630        6.4278716446
 H        -2.8368111509        2.2216489702        1.9204225613
 H        -4.0919020004        2.0945523762        3.2556372480
 H        -5.1830657922       -2.1289088830       -0.5252148166
 H        -3.8078362049       -2.5115676173       -1.4899101330
 H        -6.5075679046       -0.7971969355        0.3013919611
 H        -6.4278724050        0.3301617310        1.6850904902
 H        -5.7214745426       -1.3205125172        1.7897261159
 H        -5.2312776541        1.4889160670       -0.7645090860
 H        -5.0321454268        2.2562042363        0.9505763421
 H        -3.7799932888        2.0477933886       -0.2145818897
 H        -3.2542003475       -2.4130492743        1.3882103907
 H        -4.8125369276       -3.4497530861        1.1313492415
 H        -0.0226209992       -6.5786588914        0.8297708506
 H        -0.9926328435       -5.5894825481       -0.2000774245
 H        -2.6819683456       -4.8629488579        4.0284291828
 H        -4.0746967687       -4.4442166492        3.0319029820
 H        -2.6366469349       -3.3128334795        3.1808482137
 H        -4.0675947008       -6.4242428855        1.9553612647
 H        -2.4904184634       -7.2748039264        1.2985388016
 H        -2.9654325509       -6.8007837187        3.0224297451
 H         1.5880859100       -5.1569591905       -0.3144020330
 H         1.4540536382       -4.4974727487        1.4527502602
 H         3.8960271316       -1.0991007994       -2.3521668443
 H         4.4505572232       -2.5158652995       -1.3237604391
 H         0.4663563249       -0.5520779361       -0.2978282533
 H         1.9418826544       -0.0265484912        0.3918345070
 H         0.8425579192       -1.0944529419        1.3835871853
 H         3.7334304000       -2.0133070307        0.8321175335
 H         2.7298582141       -3.1180556900        1.6539815447
 H         3.3388585763       -3.6792825167        0.3124998640
 H         3.0787460563       -2.2201863406       -4.1435459925
 H         4.7526620370       -2.8826255392       -3.8650876584
 H         0.1195799682       -6.0905449735       -5.6836368265
 H         0.0881944501       -5.2884319376       -4.0138619990
 H         4.3441249765       -4.2872885495       -5.7997977993
 H         4.3407863341       -6.0445381674       -6.0785809373
 H         4.9686672813       -5.5689668945       -4.5711203995
 H         2.3156417280       -7.3227734708       -4.7519563094
 H         3.2259672331       -6.9233491232       -3.3411014896
 H         1.4594125054       -6.6333336130       -3.3054328076
 H        -2.0211640989       -4.6950010556       -5.3036183704
 H        -1.1175904389       -4.0786935090       -6.5977431846
 H        -0.1097942836        0.7480049859       -4.6756340067
 H        -1.4875112583        1.3831857308       -5.3979151073
 H         0.6007556346       -1.2186968329       -5.6134483537
 H        -0.3459364051       -0.0747545342       -6.8980891611
 H         0.0263971384       -1.8065236591       -7.2542665827
 H        -2.3666552324       -1.4967829408       -7.8303090678
 H        -2.6715774444       -2.9787387799       -7.0075498262
 H        -3.5594900404       -1.4800200099       -6.6076788751
 H        -1.6683267769        2.8774531417       -3.7449526668
 H        -2.3081018170        1.6559661819       -2.8683231582
 H        -1.5223096316        4.4022859986        1.3101115473
 H        -0.0067337596        3.3765103081        1.1106868274
 H        -0.1472371640        5.1336477865        0.5395617064
 H         1.9712217048        3.9913423643       -0.9817450744
 H         2.1923574043        2.3822028170       -1.7813967589
 H         1.4135093620        2.5562988873       -0.2035336926
 H        -0.0445551640        5.4011333687       -2.4996580109
 H         1.2810365100        4.5197433171       -3.1723341436
 H        -0.3299636424        4.2274161037       -3.7263768297
 Na       -0.7569428629       -1.1257401279       -1.9834913668
