155

 C         0.7135143822        9.4609794278        4.6598429380
 C         1.2221591222        8.6904074695        3.4149504845
 C         2.6459538388        8.0096709265        3.7769276789
 C         2.1869254627        6.8557096677        4.8518283238
 C         1.1907618860        5.7905988006        4.4095589017
 C         3.2657384234        7.3017819325        2.4965057958
 C         3.7103621782        8.9034185486        4.4506202940
 O         0.5573253634        8.6384635135        2.4279777949
 O         2.5392237023        6.9679143294        6.0015046445
 C         0.7022200623        4.9389363902        5.5738641531
 C         0.1206647810        3.6433866330        5.0193011126
 C        -1.1875823247        3.0224505856        5.7602858496
 C        -2.3793847891        2.7317055124        4.6776402700
 C        -2.2340810306        1.5181283417        3.7700687300
 O         0.5245919991        3.1169386649        4.0032141318
 O        -3.3530217305        3.4641107188        4.6516964707
 C        -0.6541546404        1.7573589489        6.4902525226
 C        -1.7912505354        3.8859918446        6.8775557331
 C        -3.1241733433        1.4837068486        2.3440625944
 C        -3.6506925707        0.1294948358        1.9142347792
 C        -4.4295488081        0.0450994064        0.5059116987
 C        -3.6045243501       -0.9374303730       -0.3560667994
 C        -3.9317536191       -2.3215694946       -0.8153422155
 C        -5.7903922502       -0.6182098307        0.9092728395
 C        -4.7566412567        1.4120225210       -0.1761753157
 O        -3.2042206859       -0.8494502083        2.5044607507
 O        -2.5824720013       -0.4708155290       -0.7923209019
 C        -3.9738277973       -3.0979421677        0.4834028170
 C        -3.2843291098       -4.4764219900        0.5624530184
 C        -2.6329504710       -4.9578738544        1.8978420459
 C        -1.0718244835       -4.8542004451        1.9448115214
 C        -0.1322841775       -5.5180015072        0.8995308487
 O        -3.0860109716       -5.1353095554       -0.4485033279
 O        -0.4927824851       -4.2368365193        2.8517888175
 C        -3.2292456096       -4.2717757331        3.1030230240
 C        -2.8933357519       -6.5063478473        1.8467881828
 C         1.0717494873       -4.6486951511        0.3357723406
 C         0.8096396210       -3.2166789792       -0.0870381028
 C         2.0280025233       -2.1002785809       -0.1384495728
 C         2.3708863348       -1.9907333260       -1.6528900521
 C         3.8592752203       -2.1709912019       -2.1440633424
 C         1.6373452376       -0.6879963175        0.4451331908
 C         3.2931045109       -2.6011682797        0.6762127232
 O        -0.3088461670       -3.0197468366       -0.4447034323
 O         1.4274282301       -1.7610363895       -2.4453580608
 C         3.8113317619       -2.8976558243       -3.5110867367
 C         3.0809594457       -4.2446014986       -3.2636305981
 C         2.7446704028       -5.1108104844       -4.4480562933
 C         1.5800663950       -4.4693716387       -5.1852400734
 C         0.1792322958       -5.0407794774       -4.9871223935
 O         2.7863630602       -4.5806069677       -2.1694125835
 O         1.7740257510       -3.4614281375       -5.8396236816
 C         3.8404337316       -4.9809754956       -5.5678297605
 C         2.5886244336       -6.6282087715       -4.0421524012
 C        -0.8541269030       -4.1403334898       -5.6934989986
 C        -1.1429157567       -2.8032465033       -4.8145990256
 C        -1.4795676064       -1.4434644492       -5.6495317203
 C        -1.9178513004       -0.3418220642       -4.6859822158
 C        -1.1312935494        1.0022331347       -4.5232017674
 C        -0.2185161168       -1.1711880039       -6.4984421604
 C        -2.7596115160       -1.8506220772       -6.5551766804
 O        -1.1517995882       -2.9652874872       -3.6135244470
 O        -2.9662058914       -0.4784274171       -4.1056237740
 C        -1.6891192198        1.7816161180       -3.2229703245
 C        -0.4694809076        1.8800052749       -2.2460676131
 C         0.1392838491        3.1416360607       -1.6027081547
 C        -0.9850735174        3.7563727562       -0.5816962965
 C        -0.4754467281        4.2362736300        0.8335390971
 O         0.0260352138        0.8119524140       -1.9415015067
 O        -2.1145575306        3.7843181412       -0.9936140826
 C         1.4051765394        2.7976108263       -0.8702130941
 C         0.3962450075        4.2054349082       -2.6147011682
 H         0.4230899487       10.4192524663        4.2910050838
 H        -0.2095457954        9.0220237430        5.0060133565
 H         1.4195260115        9.4761923022        5.5590573190
 H         0.3034267666        6.2755468489        3.9530414227
 H         1.6108342296        5.0547028383        3.6101197434
 H         3.4376998601        8.0292505919        1.7206396147
 H         2.5129951909        6.6108746188        1.9974231496
 H         4.1682766187        6.7905167357        2.7826536403
 H         3.4200257404        9.2715822917        5.4303636129
 H         4.5341568485        8.1572473001        4.4798779254
 H         4.0493372473        9.6712088432        3.7527045674
 H         1.5188020748        4.7772182281        6.3925605086
 H        -0.0423802480        5.5756358974        6.1328686562
 H        -1.1902228717        1.3907987955        3.4450478397
 H        -2.4780473214        0.6339853330        4.5079092159
 H        -1.4241142350        1.0793401295        6.7349582378
 H        -0.0227952130        2.1462122307        7.3964839808
 H         0.0588440338        1.1948545116        5.9042223390
 H        -2.6841625083        3.3969965206        7.3514341544
 H        -1.0416733956        4.2434614473        7.5720085993
 H        -2.2312820593        4.7815003035        6.4133103954
 H        -2.5597367580        1.9689481491        1.5506970052
 H        -3.8580973180        2.1788321438        2.6980521715
 H        -4.6966504411       -2.4158935466       -1.5826800829
 H        -3.0011344171       -2.7298182313       -1.3184785621
 H        -6.2960114799       -1.0058442885        0.0898319730
 H        -6.5429698933        0.1475893653        1.2561567998
 H        -5.6770007150       -1.3485388731        1.7288458893
 H        -5.3791136723        1.3893276591       -1.0340175259
 H        -5.1659023145        2.1504289688        0.5249244613
 H        -3.8415581311        1.8447331487       -0.5251316743
 H        -3.4377830896       -2.4163139513        1.1404336355
 H        -4.9334416878       -3.3314464322        0.9265709774
 H         0.3958463418       -6.3781619410        1.2907826917
 H        -0.8275412880       -5.9177182714        0.1358127894
 H        -2.9326295643       -4.8149045878        3.9449333627
 H        -4.3017473805       -4.2188702095        3.1343932146
 H        -2.7924680871       -3.2717106391        3.1796790589
 H        -3.9942086704       -6.7332507288        1.8789695381
 H        -2.3219225890       -6.9296005754        1.1072029553
 H        -2.5726653963       -6.9035061008        2.7616169012
 H         1.4305832245       -5.2637653836       -0.4622752530
 H         1.7422239436       -4.6594358713        1.1203669915
 H         4.3082244601       -1.1618526284       -2.1447784862
 H         4.1973042390       -2.8517250309       -1.4298451788
 H         0.6916716732       -0.1845146624        0.0659257944
 H         2.5161625212       -0.0653150847        0.2282209845
 H         1.4635689480       -0.8120701857        1.5268407635
 H         4.1943226982       -1.9845568209        0.5306631582
 H         3.1812339788       -2.7065990702        1.7599267510
 H         3.6097588846       -3.6284237631        0.4755756592
 H         3.2477215531       -2.3871747777       -4.2768875315
 H         4.8918361242       -3.0181467372       -3.8485340994
 H         0.1463774866       -6.0135185314       -5.3687227575
 H        -0.1299117014       -5.0534780853       -3.9365784757
 H         4.2039691314       -4.0218429856       -5.8168329991
 H         3.4456264623       -5.3573150106       -6.4726839927
 H         4.5763394476       -5.7570269936       -5.4232216249
 H         2.3042790535       -7.2799580538       -4.9039221658
 H         3.5774690178       -7.1001614003       -3.6868618004
 H         1.8964439783       -6.7842779448       -3.2618515365
 H        -1.8902699857       -4.6050983091       -5.6544092637
 H        -0.6776481849       -3.8896852933       -6.7485424129
 H        -0.0412030316        0.8833965426       -4.5087155138
 H        -1.3479247681        1.6590204696       -5.4872892176
 H         0.5765138817       -0.8094871758       -5.8645155563
 H        -0.5073371343       -0.5928836630       -7.3496565557
 H         0.1532917357       -2.0897278591       -6.9025202216
 H        -2.6250887260       -1.3212017139       -7.5079194845
 H        -2.8356415413       -2.8675124331       -6.7618390015
 H        -3.7306844709       -1.4230625404       -6.2628135943
 H        -2.1727235129        2.7329539503       -3.4274398689
 H        -2.4665664473        1.1879647683       -2.6638084138
 H        -1.3570678959        4.0398222608        1.4393280095
 H         0.4057891649        3.8165357081        1.1806565614
 H        -0.4482930047        5.3114853494        0.7350883699
 H         1.7997567490        3.5605436914       -0.1731850042
 H         2.1451466692        2.5201807561       -1.5799422811
 H         1.2436724080        1.8894003050       -0.1941370043
 H         0.1772801567        5.1508917686       -2.2493500401
 H         1.4236548500        4.2135725688       -2.9594606338
 H        -0.2741814777        4.1368418378       -3.4718792065
 Na       -0.9159349828       -1.3569726589       -2.1180120651
