155

 C         0.5705324393        9.5494206263        4.6104298731
 C         1.2942375970        8.6866730021        3.5830802371
 C         2.6410474741        7.9737584955        3.8690696688
 C         2.1701908037        6.9756709040        5.0474390807
 C         1.1321259680        5.9428033346        4.5529578143
 C         3.0214069023        7.2717967681        2.5823368218
 C         3.7493705461        9.0125847358        4.3681277988
 O         0.8613749553        8.5636509897        2.4440674649
 O         2.4087090522        7.2129336106        6.2005466224
 C         0.4248711619        5.0729543078        5.6427385873
 C        -0.1258195028        3.7174729207        5.0677163359
 C        -1.4077939840        2.9466636002        5.6171435287
 C        -2.4119655948        2.6897034138        4.4713607840
 C        -2.2424388623        1.4415198893        3.5837881205
 O         0.4652360748        3.2407046389        4.1216368837
 O        -3.4433079659        3.3584095184        4.3574614313
 C        -0.9218262840        1.5644833693        6.2196254533
 C        -2.0645518756        3.8568737949        6.7048083565
 C        -3.0940180976        1.5250819329        2.2964721720
 C        -3.4592401380        0.2266175722        1.7194734116
 C        -4.3498304273        0.0240607238        0.4094106692
 C        -3.3839604862       -0.9288033404       -0.3712142117
 C        -3.7858828169       -2.3405915147       -0.7224701300
 C        -5.6437233155       -0.6830079930        0.7393011036
 C        -4.6352139236        1.2816537397       -0.4084016749
 O        -3.1824682851       -0.8060914180        2.2771352071
 O        -2.5255681541       -0.3247763419       -0.9429543785
 C        -4.0814633691       -3.3023145965        0.4993394065
 C        -3.2893527776       -4.6457953753        0.4898524231
 C        -2.6370327931       -5.1626199631        1.9118584599
 C        -1.0478390023       -4.6930306411        1.9891798552
 C        -0.2514191608       -5.1789045708        0.8166739400
 O        -2.9024431601       -5.1484682469       -0.5297906048
 O        -0.6273522332       -3.9194428775        2.7723501692
 C        -3.3625194710       -4.5044343591        3.1087326485
 C        -2.7477597623       -6.6568528228        2.0899203454
 C         1.1473074025       -4.4950072694        0.8131474769
 C         1.0532104782       -3.2562687829        0.0657305554
 C         2.2488269329       -2.2693806510       -0.1200535745
 C         2.4071956121       -2.0180012200       -1.6923917590
 C         3.8663767347       -1.9811181639       -2.2767650041
 C         1.6395069933       -0.9499563338        0.4795126289
 C         3.4513861037       -2.7191267150        0.8149148822
 O        -0.0719365221       -2.9096781754       -0.3287718534
 O         1.4824641510       -1.6224421075       -2.3142002043
 C         3.9943939008       -2.9466289893       -3.4487661070
 C         3.2197995445       -4.3064893344       -3.3330798365
 C         2.8730346512       -5.1609712193       -4.6805208892
 C         1.5519511149       -4.3968619139       -5.0896997592
 C         0.1670272869       -5.0072716805       -4.9755386027
 O         2.5167264142       -4.6206760734       -2.3487991015
 O         1.6561021249       -3.2568936578       -5.5397809949
 C         3.9280082242       -5.1823100475       -5.7920642751
 C         2.6045894403       -6.5467206784       -4.3330632857
 C        -0.8280465874       -4.1812681114       -5.7575225118
 C        -1.1227106270       -2.8337767991       -4.9603754013
 C        -1.5307622546       -1.3962797552       -5.6644392405
 C        -1.8890328436       -0.3544824388       -4.4685510538
 C        -1.1986314306        0.9622435439       -4.4835504983
 C        -0.3448309833       -0.9931131088       -6.5648680157
 C        -2.7661632860       -1.7016296382       -6.4993477731
 O        -1.3112815747       -2.9726084349       -3.7805346409
 O        -2.8511419522       -0.6025443701       -3.7668586374
 C        -1.4803592561        1.8402796161       -3.3246628467
 C        -0.4496078604        1.7682142198       -2.1812684080
 C         0.1119131449        3.0495400598       -1.4382071387
 C        -0.9906520164        3.7678263761       -0.5114577817
 C        -0.6042876569        4.3580205384        0.9019401253
 O         0.0332483881        0.6860378007       -1.8282316007
 O        -2.1554692486        3.8182520704       -0.8799840866
 C         1.4603821694        2.7046006493       -0.7003157402
 C         0.4177416497        4.1082316493       -2.5175840376
 H         1.3228277356       10.3018709748        5.0577981417
 H        -0.2732231164       10.1740555163        4.1660247429
 H         0.2128013413        8.9099196028        5.3760777418
 H         0.4112649278        6.4775615234        3.9113055068
 H         1.5564603213        5.1876355776        3.9503179383
 H         2.9396707308        7.9248266968        1.6676176350
 H         2.3115985243        6.4968649040        2.2893800964
 H         4.0581887799        6.8542826073        2.8116582197
 H         3.4675820433        9.2849445931        5.4128040710
 H         4.7314490349        8.5896537556        4.4235480535
 H         3.7426700075        9.8060404920        3.6389846427
 H         1.1268252544        4.7676545138        6.3646176119
 H        -0.2770009828        5.6632672802        6.1899069760
 H        -1.2863657741        1.1508479607        3.1746123383
 H        -2.5493361625        0.5954415496        4.1274253301
 H        -1.7982314482        1.1103300604        6.7204192954
 H        -0.1128669951        1.6469954006        6.8282542759
 H        -0.7548842448        0.8881390910        5.4175546737
 H        -2.9720878149        3.3705011223        7.0284003529
 H        -1.3551415696        4.0944046110        7.5266314061
 H        -2.3626154096        4.8432074466        6.3093968866
 H        -2.5665801544        2.0896457756        1.5363683927
 H        -3.9598798749        2.1266830664        2.6178439091
 H        -4.7067160991       -2.1996547973       -1.2853221354
 H        -3.0707339551       -2.7440721738       -1.4034766818
 H        -6.3812546252       -0.8792316835       -0.1023568754
 H        -6.2773917243       -0.0127703132        1.2775799829
 H        -5.4238790002       -1.3917050982        1.5102881007
 H        -5.0877097060        1.1260868333       -1.4370738865
 H        -5.4956990035        1.8442981898        0.0153293963
 H        -3.7800851013        2.0172044971       -0.4657144263
 H        -3.8000632944       -2.7058966021        1.3679910764
 H        -5.1570897272       -3.5203651839        0.5791537943
 H        -0.1086113993       -6.2685532502        0.9228651598
 H        -0.8614275790       -5.0188493620       -0.0520246853
 H        -2.9399890225       -4.9887672119        4.0198480452
 H        -4.4764140938       -4.5161403757        3.1813277441
 H        -3.1248970940       -3.4221709838        3.1092612720
 H        -3.6333168129       -7.0565544936        2.5198544241
 H        -2.5769795151       -7.1140980492        1.0559672175
 H        -1.8168312512       -6.9606053879        2.6610699331
 H         1.8479495243       -5.1930615980        0.2648139679
 H         1.4868502697       -4.3706703046        1.8979776507
 H         3.8788761830       -0.9922822571       -2.6804324762
 H         4.5076529652       -2.2046884298       -1.3676036755
 H         0.6661231620       -0.9453635329        0.0350922900
 H         2.2923829248       -0.0731188075        0.2041757359
 H         1.3701774796       -0.9306998147        1.5584942801
 H         4.1490937551       -1.8565166824        0.9393174572
 H         3.1932237634       -3.0029324355        1.8502042714
 H         4.2119644831       -3.4916497311        0.5141069146
 H         3.6404568774       -2.5157911426       -4.3801433573
 H         5.0576520548       -3.0859907428       -3.5950864212
 H         0.0017943577       -6.0933035826       -5.2936242365
 H        -0.0332364161       -4.9118566862       -3.9009808930
 H         3.8703153895       -4.2206746458       -6.2857295774
 H         3.6950384972       -5.9616477051       -6.5386889463
 H         4.9526672467       -5.4292053136       -5.5867755237
 H         2.1205286799       -7.0182713111       -5.1375837677
 H         3.3767072974       -7.2051761601       -4.1687925744
 H         2.0170197106       -6.6340834566       -3.3891137633
 H        -1.7801433352       -4.6569604675       -5.7851499042
 H        -0.5074949475       -3.9025821230       -6.7692807292
 H        -0.1462357330        0.6307249090       -4.6095132287
 H        -1.4181685692        1.4594227265       -5.3517492140
 H         0.5572224264       -0.9238805044       -5.9537783303
 H        -0.6535835682       -0.0673382122       -7.0377460653
 H        -0.2613343530       -1.7596565131       -7.2844840252
 H        -3.3540815913       -0.8432259897       -6.8410823063
 H        -2.4445897711       -2.4023923910       -7.3036106305
 H        -3.5698036784       -2.2588933513       -5.9367075744
 H        -1.6684438161        2.9153639874       -3.5761464429
 H        -2.3848804984        1.4778736120       -2.8039981907
 H        -1.5676006578        4.4793315854        1.4201484622
 H         0.0506906577        3.5267712124        1.3296574251
 H        -0.0147578279        5.3044407615        0.8554933751
 H         1.9858189355        3.6126866088       -0.5839174505
 H         2.0332063607        2.0367972169       -1.3458663380
 H         1.4542798782        2.3163664939        0.2489611340
 H         1.2000882266        4.8724842453       -2.1440412018
 H         0.8223941885        3.5703461894       -3.3983760388
 H        -0.4352084143        4.7354748216       -2.8093474181
 Na       -0.8991434335       -1.5621301387       -2.0735999611
