155

 C         0.5906961063        9.7846578031        4.5419435406
 C         1.1842683522        8.8465386010        3.5221614307
 C         2.4033992418        7.9828186117        3.9508429793
 C         1.9530901096        7.0602716531        5.1427910025
 C         1.1973515131        5.7491250092        4.6682677590
 C         3.1511110992        7.0536716475        2.9025743688
 C         3.5056100839        8.8848456393        4.4875825812
 O         0.7833579218        8.7378936130        2.3558239211
 O         2.2917631058        7.2075948218        6.3239726044
 C         0.1487603628        5.0342685761        5.5759714036
 C        -0.3641706946        3.7623536492        4.9422238390
 C        -1.5518713877        2.9626565420        5.5331388982
 C        -2.4742662533        2.7972251894        4.1800315185
 C        -2.1083155672        1.6788535894        3.2800117842
 O         0.3227594111        3.2374130135        4.0607400906
 O        -3.4469269718        3.4945400442        4.1839525896
 C        -0.9839801772        1.6788175198        6.1522936611
 C        -2.4340339247        3.7064083041        6.6507380483
 C        -3.1747998955        1.6315279464        2.1357570083
 C        -3.4741048817        0.1270544402        1.6027686018
 C        -4.4128046225       -0.1383122978        0.2985760557
 C        -3.4274769454       -1.0610078930       -0.4919887487
 C        -3.6078237883       -2.5642636194       -0.7588732848
 C        -5.8061405879       -0.4784060133        0.7422220594
 C        -4.4310040656        1.2810461412       -0.3724880758
 O        -3.2026975579       -0.7883131743        2.3621581027
 O        -2.4598636036       -0.4734039294       -0.9790736991
 C        -3.9156678033       -3.3146888394        0.5205444416
 C        -3.1842353123       -4.6091267884        0.5974516379
 C        -2.6514492961       -5.1624756772        1.8973397409
 C        -1.2221041806       -4.6793179611        2.0300569085
 C        -0.0929067874       -5.3107865726        1.1432728204
 O        -2.7882780604       -5.2087074719       -0.3917390052
 O        -0.9483382656       -3.6626113650        2.6580346726
 C        -3.3709702743       -4.6860857766        3.1859245997
 C        -2.5916089537       -6.6976694445        1.8743363412
 C         1.1790530005       -4.4329635926        1.0131112327
 C         1.0101878583       -3.1609014996        0.1598877281
 C         2.2858927540       -2.2110047282       -0.0357607838
 C         2.5565780271       -2.1471607334       -1.6337436618
 C         4.0077589177       -2.2815883759       -2.2584621557
 C         1.9374935852       -0.8285727389        0.6756192830
 C         3.6451157200       -2.7803779393        0.5134590622
 O        -0.0283686944       -3.0271958925       -0.4066657072
 O         1.7185134145       -1.7533734497       -2.4437081481
 C         3.9913808223       -3.0582126610       -3.5609881338
 C         3.1282936798       -4.3187023807       -3.3861510162
 C         2.8251141251       -5.0337791480       -4.7695518725
 C         1.5712340173       -4.2358799805       -5.2843972423
 C         0.1718835711       -4.9315419138       -5.3580869796
 O         2.6132389075       -4.5925689464       -2.3246103382
 O         1.7135669975       -3.0400180209       -5.3874177890
 C         4.0296105038       -4.9367016813       -5.6652007336
 C         2.4994848643       -6.5059357851       -4.4001359118
 C        -1.0132386031       -4.0372365746       -5.9456860082
 C        -1.3020736774       -2.8466908677       -4.8825360458
 C        -1.6099352971       -1.4106944491       -5.5935052516
 C        -1.8395269086       -0.4306086667       -4.4615543616
 C        -1.0667464497        0.9327450248       -4.3779145665
 C        -0.4568711353       -0.9446492502       -6.5498333969
 C        -2.9230382352       -1.5363000295       -6.4591696467
 O        -1.3183070322       -3.0366785941       -3.6684803150
 O        -2.6298314785       -0.8001443526       -3.6014538719
 C        -1.4735757746        1.8774449390       -3.1878589376
 C        -0.3286537813        1.7106246871       -2.1177945578
 C         0.1461520682        3.0289416012       -1.4334779896
 C        -0.9872198505        3.6890322352       -0.5846399164
 C        -0.6310257961        4.3339578665        0.7617772385
 O         0.0440912519        0.6896834205       -1.6437146249
 O        -2.1411435872        3.5843200070       -0.8660621068
 C         1.3442118159        2.6878205314       -0.5068592941
 C         0.4790295854        4.1863137808       -2.4976436890
 H         0.9129511106        9.5573319600        5.4961258931
 H         0.9437552942       10.7228075408        4.2336503616
 H        -0.5068349645        9.7685381062        4.5977760712
 H         0.8326031563        5.8730494593        3.6526371335
 H         1.8885334349        4.9010618333        4.5850136370
 H         3.6722041119        7.6810274165        2.2484779880
 H         2.4223535352        6.6670164219        2.2645707021
 H         3.7573247818        6.3603151016        3.3379538948
 H         3.3088028709        9.1919367295        5.4905032105
 H         4.3866372702        8.2285106613        4.7163457974
 H         3.7554642006        9.6218082637        3.7139100726
 H         0.6436650480        4.6575312196        6.5007940257
 H        -0.6499871043        5.6917308715        5.9355569817
 H        -1.1398286490        1.8078473599        2.7653822790
 H        -2.0083887093        0.6044555929        3.6196935415
 H        -1.7263634634        0.9071217323        6.3547370324
 H        -0.5362127592        2.0335749885        7.1440366790
 H        -0.1965103648        1.2521497734        5.4236780526
 H        -3.1685032027        2.9779703867        6.9299601898
 H        -1.8540204014        3.9586937049        7.4962248862
 H        -2.8440128945        4.6387839948        6.3245329413
 H        -2.8192178910        2.2543915877        1.2715852935
 H        -4.1328189620        2.0607517582        2.5191621193
 H        -4.6076437166       -2.6760562533       -1.2511822054
 H        -2.8188926033       -2.9082405290       -1.4765940425
 H        -6.3286631118       -0.7074722505       -0.1087284622
 H        -6.4511338898        0.3483176409        1.0874679185
 H        -5.8302793398       -1.1801902781        1.5634202689
 H        -5.1881472784        1.4178183276       -1.0675639674
 H        -4.9255881469        1.8955207009        0.3618915430
 H        -3.5248828573        1.7514507180       -0.6433166792
 H        -3.7121711413       -2.6161284013        1.3743588856
 H        -5.0244713844       -3.3258157801        0.4397364882
 H         0.1382464230       -6.3214315672        1.4832808028
 H        -0.5094506027       -5.3607978448        0.0966188575
 H        -2.9770169461       -5.2021515059        4.0659959719
 H        -4.4150465542       -4.9057558108        3.0700816028
 H        -3.4356038873       -3.6228172305        3.2778179153
 H        -3.6453909201       -7.0700828933        1.9656280822
 H        -2.3262906993       -7.0258652085        0.8680726815
 H        -1.8980243691       -7.0875026250        2.6085094280
 H         1.9443268879       -5.0401312914        0.5956555046
 H         1.4930223663       -4.1584900277        1.9953451061
 H         4.3184047614       -1.2278864435       -2.4407033035
 H         4.5449674530       -2.7286140456       -1.5155367569
 H         1.0567242056       -0.3376959670        0.2317645602
 H         2.8214435271       -0.3400666694        0.9412477301
 H         1.4708745926       -1.0681940054        1.6318001433
 H         4.5507204197       -2.3123624969        0.3049242876
 H         3.6979750553       -2.8845850232        1.5806728708
 H         3.8293610396       -3.7006082613        0.0234419382
 H         3.5945077308       -2.4199791740       -4.4296043093
 H         5.0595948580       -3.2193270418       -3.8878128028
 H         0.1857547282       -5.7178909348       -6.0650827371
 H         0.0484742739       -5.4123344449       -4.3583836942
 H         4.2558351886       -3.9121538855       -6.0672656151
 H         4.0790804196       -5.6833824066       -6.4668690598
 H         4.9441340825       -5.2055234921       -5.0759525592
 H         2.2734690554       -7.2279947095       -5.2325962075
 H         3.3939675928       -7.0711879257       -3.9541380357
 H         1.8568175599       -6.6345772254       -3.5509468906
 H        -1.9472755123       -4.6426992466       -6.0176238303
 H        -0.7338078380       -3.5501482449       -6.8709526260
 H        -0.0266516972        0.7488133159       -4.5384161223
 H        -1.4327952827        1.5203657557       -5.2975639080
 H         0.4757215231       -1.1250587733       -5.9881612915
 H        -0.6141848321        0.1300630028       -6.8364716233
 H        -0.5450652577       -1.7183547798       -7.4166415964
 H        -3.6217043402       -0.7832535594       -6.1767496287
 H        -2.7219486045       -1.6286318756       -7.5476311172
 H        -3.4341576396       -2.3946669707       -6.2695440206
 H        -1.3762511768        2.8778054407       -3.4890796577
 H        -2.4374110653        1.6869604179       -2.7189134683
 H        -1.3646120486        5.0714510147        1.0049168740
 H        -0.6276944041        3.4970425085        1.3969194496
 H         0.3863055063        4.6726601098        0.7319572828
 H         1.7177359482        3.6278947489       -0.0399051801
 H         2.1623237447        2.1976716631       -1.0278605734
 H         1.0915675697        2.0125750016        0.3719771587
 H         1.3069787041        4.7162550073       -2.1152757235
 H         0.6509457567        3.8132935286       -3.5215517899
 H        -0.3317683927        4.9358474879       -2.5410037218
 Na       -0.6166082692       -1.5475776908       -1.9781988931
