155

 C         0.8314029521       10.0820594717        4.4745675521
 C         1.2635202872        8.8108867308        3.6533141877
 C         2.3740573758        8.0320298102        4.4539230346
 C         1.4035786384        7.0656754064        5.1600240538
 C         0.9808816781        5.7514198967        4.4529070752
 C         3.3658077377        7.3521308173        3.4767751684
 C         3.1701512586        8.9997580641        5.3722077407
 O         0.8315736656        8.3477412916        2.6486852845
 O         0.7505181272        7.5198870236        6.1270891008
 C        -0.2037877876        5.1318373540        5.2386999849
 C        -0.5822019931        3.7855308021        4.6430710347
 C        -1.9473669590        3.1717894344        5.2189130602
 C        -2.8156087151        2.9056214250        3.9952918763
 C        -2.4630759190        1.6225416722        3.1494188416
 O         0.0994895558        3.1261303392        3.9272487120
 O        -3.6889885794        3.7189380838        3.7902938332
 C        -1.5110773941        1.8052181741        5.8799087238
 C        -2.6319165159        4.0290334524        6.3945479143
 C        -3.2243088379        1.5581670579        1.7909797802
 C        -3.9637208084        0.2753860088        1.6338715227
 C        -4.4759926100       -0.2117721273        0.1539053517
 C        -3.3387565221       -1.0622573643       -0.3843351276
 C        -3.6766855167       -2.5181523099       -0.6682359039
 C        -5.8803473898       -0.9070275370        0.2704859821
 C        -4.6678907363        1.0374496694       -0.7861493849
 O        -4.2370839093       -0.5526373141        2.4991252410
 O        -2.3046401815       -0.4878709908       -0.6418479255
 C        -3.4967837047       -3.3728505672        0.6368815739
 C        -2.9688287873       -4.8103269296        0.5490256578
 C        -2.3547396776       -5.5200365452        1.8578401654
 C        -1.0635621862       -4.7540412458        2.0566654110
 C         0.2960077408       -5.2926287811        1.6628379494
 O        -3.0237332052       -5.4144123209       -0.5039858109
 O        -0.9971743803       -3.6055062513        2.5740688182
 C        -3.2623378994       -5.0890034920        3.1121855624
 C        -2.2844170844       -7.0826171461        1.6349006611
 C         1.4423322857       -4.2501478330        1.7707335465
 C         1.3924935723       -3.3209837063        0.5027595001
 C         2.6205397316       -2.3660120455        0.1837701658
 C         2.7782069192       -2.3432719838       -1.3762028971
 C         4.1330252791       -2.7275155843       -2.0724613488
 C         2.1022167775       -1.0244402881        0.8147113801
 C         3.9969300726       -2.7154259042        0.8615927994
 O         0.4643369809       -3.3136885683       -0.3113698793
 O         1.8651886397       -2.0300525142       -2.0627115602
 C         3.8022977220       -2.9999306928       -3.5870881640
 C         3.1473068914       -4.3566581663       -3.6272331953
 C         2.7442987197       -5.0501587203       -5.1262994501
 C         1.5594444342       -4.1071773853       -5.5035618793
 C         0.1292451812       -4.7673595920       -5.6208135750
 O         2.8462450706       -4.9444083223       -2.6505893912
 O         1.7016022976       -2.9581115705       -5.8669191606
 C         3.8146125529       -5.0469092680       -6.2254738600
 C         2.3248614144       -6.4682339369       -4.8526886459
 C        -0.9333296080       -3.8597454910       -6.1015670479
 C        -1.0132657269       -2.5955854695       -5.1852805407
 C        -1.7328922254       -1.2420043043       -5.7040264675
 C        -1.7706568584       -0.3354640916       -4.3935292546
 C        -0.8376560962        0.9601442796       -4.1168286313
 C        -0.6625926196       -0.6707815720       -6.6797699862
 C        -3.1476136293       -1.4696284667       -6.2808657167
 O        -0.4481139961       -2.6410158035       -4.1073655055
 O        -2.4156794677       -0.7210095084       -3.4593018868
 C        -1.2555359135        1.5198228025       -2.8010911103
 C        -0.0066790940        1.7721677970       -1.9468227812
 C         0.2941653444        3.2102547865       -1.2377513896
 C        -1.0412787910        3.7109521162       -0.4746055738
 C        -0.9326523593        5.0994632994        0.4359576828
 O         0.8026762188        0.8526744489       -1.7314037499
 O        -2.0903248865        3.1433187801       -0.6894569286
 C         1.4279062869        2.9208100070       -0.2011117036
 C         0.8309892158        4.2204687256       -2.3245279538
 H        -0.0142888311       10.5577741490        3.9925359295
 H         0.7255197556        9.8812829554        5.4903727929
 H         1.6431672200       10.8791670763        4.4854869403
 H         0.6943077343        6.0142403573        3.4100837096
 H         1.8803005208        5.0036399283        4.3073766715
 H         3.9480430465        8.0345115969        2.9515611653
 H         2.7792605371        6.6987662100        2.7849904208
 H         4.0095354046        6.7085868780        3.9912221770
 H         2.5993675030        9.3905518685        6.2622220578
 H         4.1304236276        8.5831994812        5.6597143251
 H         3.4126558233        9.8354971942        4.6823277544
 H         0.0927261310        5.2062566077        6.3394183298
 H        -1.0521241018        5.8765858769        5.0824677085
 H        -1.3979709197        1.5575695420        2.8838592825
 H        -2.6773197278        0.7009511128        3.7998442707
 H        -2.4689096406        1.3841202009        6.1392976640
 H        -0.9324020046        1.9323520656        6.8773674284
 H        -0.9196764120        1.2283753368        5.2067920488
 H        -3.5403319201        3.4850952323        6.7040392903
 H        -2.0202366555        4.0392420234        7.2634848273
 H        -3.0008430464        4.9628153142        6.0482807443
 H        -2.5535155314        1.6794908302        0.9559412299
 H        -3.8684575708        2.4405335846        1.8037889230
 H        -4.6632701324       -2.5044943154       -1.0704217435
 H        -2.9956843174       -2.9833648435       -1.4454294212
 H        -6.2268968636       -1.4300238295       -0.5880191501
 H        -6.4731610374       -0.0763328412        0.5846269630
 H        -5.9144783062       -1.6897510632        1.0213651752
 H        -5.1181277949        0.8211657762       -1.6928721372
 H        -5.1428947362        1.8357202924       -0.2530739467
 H        -3.7097948699        1.4034477998       -1.0225125497
 H        -2.9147494688       -2.7976435706        1.3522142483
 H        -4.4585281542       -3.3711276711        1.1615663431
 H         0.6222745541       -6.1534321859        2.2677530164
 H         0.1922188473       -5.5774890804        0.6283884620
 H        -2.9121980809       -5.4187982183        4.0106240217
 H        -4.3043129910       -5.4096628866        3.0274678253
 H        -3.2932903526       -4.0068590147        3.2770943157
 H        -3.0644772907       -7.6452152855        2.2594727782
 H        -2.4411606746       -7.3635259674        0.6190157915
 H        -1.3901334179       -7.5359541432        1.9631113615
 H         2.4109800299       -4.7983358628        1.8195970772
 H         1.4498732104       -3.8098920196        2.7120893195
 H         4.8928651392       -1.9423258370       -1.8478125209
 H         4.4886792256       -3.5569074249       -1.4052429586
 H         1.3796693526       -0.5648792406        0.1345965276
 H         2.9268910762       -0.2756216960        1.0035661339
 H         1.6546198420       -1.1597082770        1.7846362460
 H         4.8826176490       -2.0313507546        0.7590786261
 H         3.9457963555       -2.8661338880        1.9204215319
 H         4.3372819665       -3.7260196796        0.5923585883
 H         3.3203389346       -2.2475659202       -4.0451523324
 H         4.7038818403       -3.0086837931       -4.1997968962
 H         0.2955549032       -5.4402825534       -6.4785417539
 H        -0.0335814939       -5.4815280138       -4.8835805979
 H         4.0006162830       -4.0586055812       -6.5644439101
 H         3.4398239866       -5.5874551663       -7.1206150842
 H         4.7842959645       -5.3841180750       -5.8186750759
 H         1.8893508424       -7.1211414900       -5.6256002410
 H         3.1441666083       -7.0073782821       -4.3115602223
 H         1.5237940990       -6.5246149914       -4.1324977790
 H        -1.9666619813       -4.2186696832       -6.1635868014
 H        -0.6721278949       -3.4015572565       -7.0741953237
 H         0.1985014672        0.4491906188       -4.0413271435
 H        -0.8867129591        1.7286187730       -4.9212633640
 H         0.2307304898       -0.6267998056       -6.1029982029
 H        -0.9281035657        0.2714490805       -7.1085588716
 H        -0.5569990207       -1.4089009126       -7.4746919584
 H        -3.3254418181       -0.6218562366       -6.9530291595
 H        -3.1418878640       -2.2166032018       -7.0160061135
 H        -3.9702691029       -1.6549046772       -5.5521517526
 H        -1.7650943577        2.5133157614       -2.8645545238
 H        -1.7899071375        0.7936314818       -2.2031771258
 H        -1.9510931401        5.1952037949        0.7859138341
 H        -0.2405591679        4.9381992026        1.1898604794
 H        -0.6469825106        5.9252010648       -0.1624844988
 H         1.8390904492        3.8584147953        0.2475387687
 H         2.3267666059        2.5213634995       -0.6833349903
 H         1.0485520588        2.1935917134        0.5944401034
 H         1.0346296237        5.1776277141       -1.8958484209
 H         1.7437818379        3.7823540378       -2.6087684394
 H         0.1447838996        4.2138218191       -3.1512339626
 Na       -0.3839699852       -1.7182754775       -1.5821176772
