155

 C         0.7635833861        9.9533090887        3.5682336977
 C         1.6590149404        8.6482692901        3.7041985736
 C         1.6137355475        8.0038117637        5.1505447790
 C         0.1626447780        7.4477466768        5.4175119878
 C        -0.2373106117        6.4468739837        4.3357710613
 C         2.6297112475        6.8239239391        5.2025977688
 C         1.9613247683        9.0702666004        6.1949326494
 O         2.1738208154        8.0842785285        2.7427519600
 O        -0.6106074933        7.9173166512        6.1497916224
 C        -1.4798822298        5.5755150948        4.5862510480
 C        -1.2526259676        4.0772824085        4.4439806503
 C        -2.4812179714        3.2273736573        4.7519872424
 C        -3.2395439711        3.0925078495        3.3750333188
 C        -4.1015294499        1.7690530785        3.2272040325
 O        -0.1502760238        3.5880134557        4.0503175541
 O        -3.2294662142        3.9864183206        2.5463471191
 C        -2.0932007296        1.7777002607        5.2855525446
 C        -3.4389186204        3.9116459475        5.8343937125
 C        -3.8794411079        1.2044548796        1.7571806264
 C        -4.4945540195       -0.1339531081        1.4055515332
 C        -4.5789848254       -0.5826242371       -0.0784366293
 C        -3.1107621210       -1.2051415272       -0.4505775732
 C        -3.0674493581       -2.8030475898       -0.6148138157
 C        -5.6861232498       -1.5781263313       -0.3799810426
 C        -4.5804944863        0.5775832993       -1.0049010339
 O        -5.0286443757       -0.9454635989        2.1582384036
 O        -2.1211082814       -0.5437163979       -0.4646497151
 C        -2.9285689643       -3.4964095679        0.7003567335
 C        -2.6082807960       -4.9903960625        0.6441467522
 C        -2.0353245586       -5.6689772399        2.0335153017
 C        -0.4651907698       -5.4099814069        2.1084343079
 C         0.1276259991       -5.4705496858        0.6897847053
 O        -2.8128008498       -5.6141414797       -0.3864910655
 O         0.1781086138       -5.3220533977        3.1259274421
 C        -2.7578847830       -5.1534118774        3.2525697713
 C        -2.1580563712       -7.1906798361        1.8624193440
 C         1.4459534193       -4.6967265543        0.8264503182
 C         1.3457917855       -3.2611941989        0.4642770712
 C         2.7512607502       -2.4854943322        0.1772870622
 C         2.9061511180       -2.5043110510       -1.5100788402
 C         4.0032523752       -3.5064662357       -2.0219284949
 C         2.7644086633       -0.9682072946        0.5290161547
 C         4.0050377210       -3.0786237821        0.9855877418
 O         0.3395685146       -2.6951368984        0.0759804050
 O         2.1485718157       -1.8925398377       -2.2737125974
 C         4.1779272857       -3.7828820128       -3.5165559678
 C         3.3336996406       -5.0089108564       -3.9545716666
 C         3.1022890159       -5.1882615068       -5.5201511808
 C         1.8136202431       -4.2421315661       -5.7521406487
 C         0.4919424066       -4.5312635337       -5.0082177246
 O         2.9458983390       -5.7704608422       -3.0643025341
 O         1.8781376524       -3.3315516935       -6.5264451500
 C         4.3594619561       -4.7078580265       -6.2985022158
 C         2.7315936348       -6.6104506475       -5.8036789701
 C        -0.6186593020       -3.5974130173       -5.5593678504
 C        -0.6907296295       -2.2827335304       -4.6709247649
 C        -1.4215535103       -0.9301856282       -5.1923654369
 C        -1.4207089293        0.1218880156       -4.0005364253
 C        -0.4718592990        1.3470498372       -3.8834469133
 C        -0.5948242804       -0.4271453163       -6.3571854315
 C        -2.8764413399       -1.4021514930       -5.6095262953
 O        -0.3246787671       -2.4671911427       -3.5486346591
 O        -2.2417171865       -0.0120908037       -3.1296588373
 C        -0.8637807401        2.1955435410       -2.7052579324
 C         0.1793680687        2.1355453420       -1.6141703381
 C         0.4250550188        3.5216329645       -0.8515459160
 C        -0.8942106010        4.3221020974       -0.3938097377
 C        -0.8598446540        5.8034950765       -0.3202851462
 O         0.7485558219        1.1044933563       -1.2588666123
 O        -1.9466678750        3.6443987110       -0.3202498074
 C         1.1297450370        3.2422917499        0.5386288934
 C         1.3426559329        4.2996179676       -1.7997156939
 H        -0.0132788787        9.8493088884        2.7539373378
 H         0.1226114658       10.1027926513        4.5238909543
 H         1.3338675251       10.8049195762        3.2532434131
 H        -0.2538586703        6.9327253034        3.4113954173
 H         0.5178371128        5.6854577088        4.2010928723
 H         3.7198182446        7.1993560169        5.1469931384
 H         2.5048876783        6.2055045435        4.2923805728
 H         2.6353253126        6.2135431242        6.1894688120
 H         1.1301534050        9.6494223065        6.3924137036
 H         2.1436070014        8.7258269380        7.1989058044
 H         2.8387215311        9.5998597082        5.8642833146
 H        -1.7988064471        5.8344054909        5.5757076932
 H        -2.3116187324        5.8739507636        3.9983244501
 H        -3.8247251129        0.9633050462        3.8933835552
 H        -5.1332232943        2.0439500509        3.4898321874
 H        -2.9150324132        1.2727449133        5.7934346255
 H        -1.4529343459        1.8564235117        6.0603716524
 H        -1.6546859467        1.1698483477        4.4911148450
 H        -4.2050948838        3.1530867712        6.0898009911
 H        -3.0186542024        4.2116134851        6.7851061489
 H        -3.8781648980        4.8026871663        5.3501171807
 H        -2.8173735821        1.1715791230        1.5822751679
 H        -4.2239316000        1.8956924814        0.9979945023
 H        -3.9086417105       -3.1633277895       -1.1307487182
 H        -2.1920935851       -3.1280456999       -1.2142330645
 H        -5.6308063896       -1.9260047211       -1.3684788896
 H        -6.6927777117       -1.1147637438       -0.4407056873
 H        -5.8103596164       -2.2269010719        0.4767362495
 H        -4.6856217642        0.2345935942       -2.0260665709
 H        -5.4613703067        1.1489206935       -0.8482502186
 H        -3.6899276538        1.1836519971       -0.9962853860
 H        -2.3125281114       -2.9451059085        1.3375292842
 H        -3.9128635090       -3.5298204506        1.2000354499
 H         0.4172218291       -6.4726116046        0.3326661607
 H        -0.4268327179       -5.0327515771       -0.1532243549
 H        -2.2658045607       -5.4242182844        4.2480201243
 H        -3.8065707365       -5.3888198191        3.1616344896
 H        -2.8770993165       -4.1020830012        3.3182077195
 H        -2.9878768120       -7.3822113391        1.2734716370
 H        -1.4323497162       -7.4526869744        1.0689946258
 H        -2.0280250837       -7.8176940498        2.7292844537
 H         2.2339343797       -5.1741436374        0.1065162950
 H         1.8958535919       -4.6783265890        1.7973792045
 H         4.9476008849       -3.0681946082       -1.6238924965
 H         3.9666654040       -4.4295812466       -1.5033328268
 H         1.9308103656       -0.3833733023        0.0911804019
 H         3.7294267947       -0.5359976278        0.1994697739
 H         2.7609298847       -0.7185431420        1.6359995455
 H         4.8020798603       -2.3692138232        0.7461420239
 H         3.8382650909       -2.9288297489        2.0973025984
 H         4.3063829464       -4.0155561889        0.5038101078
 H         3.9187253772       -2.8557452075       -4.1509186519
 H         5.2498615872       -4.0835495103       -3.4414932852
 H         0.2037071731       -5.5927694655       -5.1222319834
 H         0.7259801346       -4.2974044303       -3.9433793491
 H         4.2420081541       -3.6330658327       -6.4564512805
 H         4.4396479687       -5.1971704936       -7.2135792882
 H         5.1709250021       -4.8901540519       -5.6200141766
 H         2.4198852802       -6.7439945203       -6.7961917380
 H         3.5257072679       -7.2993610523       -5.7184719289
 H         2.0399144688       -7.0058517260       -5.0814194892
 H        -1.6372776817       -4.0439307036       -5.4399849257
 H        -0.4640823082       -3.3031192457       -6.5977488738
 H         0.5165332069        1.0428725506       -3.8908318373
 H        -0.5951149761        1.9010314107       -4.8210099754
 H         0.4841604237       -0.2656966871       -6.1507897688
 H        -0.9011371388        0.4811197061       -6.8889062943
 H        -0.6548381889       -1.0611602011       -7.1741915324
 H        -3.3777530479       -0.5368962751       -5.9228356664
 H        -2.9043188442       -2.2312418551       -6.3415429574
 H        -3.3432223699       -1.8511506266       -4.6671191862
 H        -1.3209688381        3.1444611711       -3.0551415729
 H        -1.7427906021        1.6685571179       -2.3082305411
 H        -1.6899674908        6.1371172828        0.2547849236
 H         0.1094756126        5.9974160570        0.2397670788
 H        -0.8679459593        6.2339018472       -1.3620237217
 H         1.3860874737        4.1935211925        1.0594502861
 H         2.0336410528        2.6370760113        0.4060548858
 H         0.5100467119        2.6819921367        1.2291077124
 H         1.5044515106        5.2382193066       -1.3664336721
 H         2.3372317686        3.8528325720       -1.8146379197
 H         0.9355448003        4.2959851031       -2.7933724741
 Na       -0.1533679913       -1.0012213661       -1.6682876188
