155

 C         1.1871707897        9.1600595979        3.3720530596
 C         1.4013131183        7.9132058062        4.1517925842
 C         0.6670152813        7.8701822568        5.5266463422
 C        -0.8534611027        7.7863269333        5.2418802541
 C        -1.2416298169        7.0988517770        3.9220233365
 C         1.1284065242        6.5346276212        6.2680119531
 C         0.7598847085        9.0529188243        6.5068079781
 O         2.0334028524        6.9683117628        3.7232974080
 O        -1.6315776413        8.2413227065        6.0807862061
 C        -2.4506312256        6.0798745678        3.9935507289
 C        -1.9093034984        4.6789360038        4.3503106498
 C        -2.8132003975        3.3666858055        4.3990335303
 C        -3.1970873022        2.9757481014        2.9562419048
 C        -4.0447474844        1.7328707974        2.7455624316
 O        -0.7295707476        4.4803534275        4.4556585568
 O        -3.1963897550        3.7617211470        2.0138731741
 C        -2.0005167611        2.1586691763        4.9957036631
 C        -4.1001341467        3.6387929173        5.2397795846
 C        -4.4095591655        1.3948408998        1.3216281379
 C        -4.5149219908       -0.2780712875        1.2257494260
 C        -4.2855710681       -0.7490441487       -0.3267661038
 C        -2.8175471491       -1.3163405431       -0.3114431734
 C        -2.6755503981       -2.7838866998       -0.2932314940
 C        -5.3983786247       -1.8515440377       -0.5555505543
 C        -4.2663382960        0.2842169619       -1.4858194855
 O        -4.3938549852       -0.9593762920        2.2319621167
 O        -1.8878067117       -0.5491247355       -0.1633792888
 C        -2.3918684711       -3.4282290822        1.0495239040
 C        -2.6416628331       -4.9187631836        0.9545708797
 C        -1.9521279361       -5.8371947652        2.1338305028
 C        -0.3674439058       -5.5640962516        1.8408357034
 C         0.0535246328       -5.8575686168        0.3930479376
 O        -3.4084607372       -5.3359219705        0.1569430456
 O         0.3750519181       -5.0517682461        2.6618762922
 C        -2.4186884890       -5.4240068999        3.4358128600
 C        -2.2848857968       -7.3137659728        1.8261935081
 C         1.4843320197       -5.4717013777        0.0664335893
 C         1.7050652821       -3.9086916504       -0.2061436529
 C         3.0794684273       -3.1312871883        0.0426118810
 C         3.3252024287       -2.3989309743       -1.4174823339
 C         4.6673193776       -2.5663666102       -2.2199545389
 C         2.6824261664       -2.2128260544        1.1522580573
 C         4.3917050741       -3.8921052623        0.5464268791
 O         0.7936352122       -3.1419131299       -0.3308859380
 O         2.4878106554       -1.6328047188       -1.9002113025
 C         4.4769951443       -3.1817514197       -3.6741305305
 C         3.5746504052       -4.4554282558       -3.7083033195
 C         3.0709340759       -4.8635383786       -5.1363876780
 C         1.7975968589       -3.9504331979       -5.3280709519
 C         0.4006152749       -4.5482432020       -5.1297374086
 O         3.1183921988       -5.0705712107       -2.7740510013
 O         1.9345732448       -2.7577954262       -5.5910979677
 C         3.9877656558       -4.3518895407       -6.3705174210
 C         2.8184600230       -6.3787871275       -5.1869621408
 C        -0.6783196588       -3.5079069687       -5.5375390069
 C        -0.4966341862       -2.2933087940       -4.6790929903
 C        -0.7371349557       -0.8684378885       -5.2186689025
 C        -0.7871048431        0.0082329705       -4.0030677234
 C         0.2900057374        1.1382008596       -3.8840145450
 C         0.3301087970       -0.4496645345       -6.2847619748
 C        -2.1635251541       -0.8019983124       -5.8692987556
 O        -0.2007636634       -2.5162822480       -3.5309989942
 O        -1.7084456260       -0.1575306178       -3.1777606475
 C        -0.2256349933        2.4485873115       -3.0384595713
 C         0.2944402849        2.2629967489       -1.6465009420
 C         0.3363562639        3.6207135196       -0.7188948522
 C        -1.1014064949        4.2610629976       -0.6907740674
 C        -1.2761974851        5.4379786298        0.2517321071
 O         0.6698783809        1.1900374644       -1.1296330243
 O        -1.9707131687        3.8380950172       -1.3952150202
 C         0.7945101254        3.2086635024        0.6627493588
 C         1.2429610310        4.6607687454       -1.4381131314
 H         2.1229712608        9.5817090537        3.1748025961
 H         0.6817711176        8.9787164688        2.5011618630
 H         0.6293907442        9.9175642215        3.9161618432
 H        -1.5144721647        8.0383282583        3.3055589471
 H        -0.3932692484        6.5794112875        3.4532454878
 H         2.2162058304        6.5408106995        6.1426798527
 H         0.7683187454        5.6118045194        5.8671267616
 H         0.7844111612        6.5381120972        7.2811808533
 H         0.6336711315       10.0459566909        6.0429232502
 H        -0.0412554939        8.9698067922        7.2526030320
 H         1.6949598216        9.2798954260        6.9620305457
 H        -3.2738269855        6.4758339523        4.6649278155
 H        -2.8800547427        6.1860637415        2.9888452914
 H        -3.4565010577        0.8266090766        3.0768711278
 H        -4.8713413802        1.8045370889        3.4061836234
 H        -0.9494665660        2.3095817131        5.3129700295
 H        -1.8590283984        1.3149008906        4.1676328070
 H        -2.4929997589        1.6733068767        5.8513560043
 H        -4.7210515168        2.7522940687        5.3356717478
 H        -3.7488298875        3.8921876378        6.2736011373
 H        -4.6040635673        4.6011823853        4.9632222845
 H        -3.6261449186        1.9022352995        0.6391700167
 H        -5.4215675765        1.8499070977        1.0586633060
 H        -3.6192553140       -3.3430178580       -0.6837724292
 H        -1.9601251538       -3.1127825641       -1.0798826121
 H        -5.2091255070       -2.4010697151       -1.5724560900
 H        -6.3474989538       -1.3361074161       -0.6284148566
 H        -5.4680897806       -2.6571645954        0.1934693030
 H        -4.5075989721       -0.2432391824       -2.4374058145
 H        -5.1149633294        0.9777727138       -1.3545180166
 H        -3.3477884550        0.8832321018       -1.5127170287
 H        -1.3962446367       -3.2474390307        1.4309745992
 H        -3.1689437540       -3.0435706053        1.8394012929
 H         0.0728505934       -6.9227204278        0.1850440168
 H        -0.7399781965       -5.3899901186       -0.1887043284
 H        -2.4710893590       -6.3171061141        4.0502618256
 H        -3.5177032281       -5.0688862015        3.3881184040
 H        -1.6907243502       -4.6233844257        3.8249402448
 H        -3.4108428916       -7.4815478104        1.8291404144
 H        -1.8089483922       -7.7423645257        0.9537465803
 H        -1.9587601150       -7.7473854009        2.7610269277
 H         1.9124752287       -6.0358519809       -0.7962885600
 H         1.9919677982       -5.7245618648        0.9890649065
 H         5.0784136307       -1.5202612496       -2.2653122400
 H         5.2101502302       -3.1978337996       -1.6040177240
 H         1.8646666212       -1.5390451241        0.8197318121
 H         3.4450689851       -1.4785955584        1.5104212678
 H         2.3747533536       -2.8721799506        1.9914760030
 H         5.2091765133       -3.1805010690        0.5140354472
 H         4.2033217524       -4.0816644548        1.5767590561
 H         4.6664904551       -4.6521813439       -0.1407980722
 H         3.8349285137       -2.4715978531       -4.2741557175
 H         5.3091226172       -3.3994555224       -4.3596987429
 H         0.2305451151       -5.5196037323       -5.5395272634
 H         0.2623025086       -4.6230106321       -4.0209206725
 H         4.1792408238       -3.3412768612       -6.1121299344
 H         3.3707471176       -4.4704229263       -7.2698938746
 H         4.8048645548       -5.0125599564       -6.5012546933
 H         2.5387588904       -6.6206047788       -6.2229046794
 H         3.7395708744       -6.9023563201       -4.9360769908
 H         2.0399002181       -6.5990497637       -4.4300167494
 H        -1.6283560887       -4.0311225757       -5.2426850562
 H        -0.8072783170       -3.4581831283       -6.6021603528
 H         1.2587957465        0.8831009190       -3.4649203438
 H         0.4352748749        1.6294013672       -4.9155774039
 H         1.3648003381       -0.4084056333       -5.8993624712
 H         0.1576831796        0.5056170833       -6.7946701492
 H         0.4321015994       -1.2171766872       -7.1625627526
 H        -2.3784152916        0.3120898745       -5.9724610963
 H        -2.0789352236       -1.4188280118       -6.7734092863
 H        -2.8823919766       -1.1757463262       -5.2671422700
 H         0.1967558971        3.3050698245       -3.5541648868
 H        -1.3170478146        2.5423820670       -3.1928867017
 H        -1.9078172649        4.8768963468        1.0559473634
 H        -0.3506244118        5.7932613717        0.7097441960
 H        -1.8865915301        6.2323976536       -0.1550970589
 H         1.0751237812        4.0300785796        1.2317407563
 H         1.5988043744        2.4894529832        0.5848226521
 H         0.0106041972        2.7281777733        1.2008744220
 H         1.3944924386        5.6565964057       -0.9149712636
 H         2.2764440673        4.2505525451       -1.4594791999
 H         1.0170424589        4.8680654042       -2.4654791356
 Na       -0.0025184588       -1.1057856654       -1.5266658607
