155

 C         1.5042541482        9.2145464493        3.6348393560
 C         1.3502242286        7.8019566123        4.3683297993
 C         0.2807364996        7.7764964593        5.5602785365
 C        -1.2438538714        7.8346516965        5.1779622005
 C        -1.6967186544        7.2227097578        3.9163394348
 C         0.4345072455        6.4173573707        6.2301349536
 C         0.5928976492        9.0277577197        6.4605501894
 O         1.8305012920        6.8011121759        3.9189984830
 O        -2.1046497740        8.1883189433        5.9531216363
 C        -2.6948276028        6.0348750068        4.0427011314
 C        -2.0230824988        4.7027955821        4.1648250541
 C        -2.9744824414        3.4853676863        4.6108430579
 C        -3.3911838258        2.9912495644        3.1959187617
 C        -4.0812819725        1.6657748002        3.0150840150
 O        -0.7763529932        4.5627708845        4.0814675890
 O        -3.0704618484        3.5968669231        2.1724709969
 C        -2.2791587303        2.3896599098        5.3682472806
 C        -4.1905076421        4.0097949540        5.4007958380
 C        -4.1787400996        1.3244950178        1.5223814814
 C        -4.4406179858       -0.2916687394        1.2743284141
 C        -4.1812456586       -0.8378593011       -0.2155160366
 C        -2.7468813426       -1.3699303986       -0.3766605971
 C        -2.6304339808       -2.9172734284       -0.3471776666
 C        -5.3142600718       -1.7545600319       -0.6464625365
 C        -4.2546868408        0.3475903489       -1.3230479343
 O        -4.6559231298       -1.0869221850        2.1870802375
 O        -1.7975246624       -0.5839156739       -0.5128427553
 C        -2.9929737807       -3.6061948686        0.9894175575
 C        -2.8770392667       -5.0935932826        1.0005265222
 C        -1.8415460986       -5.7278549097        2.0162934984
 C        -0.4201814990       -5.3799984560        1.4741296745
 C         0.1537974679       -6.1229518723        0.1875113161
 O        -3.4873666288       -5.7883137301        0.2447533231
 O         0.2863519383       -4.5217911225        1.9495935591
 C        -1.9154663426       -5.3235743201        3.6500831745
 C        -1.9690467433       -7.2971384308        1.9507075113
 C         1.5858065973       -5.5825534680       -0.0623444919
 C         1.6565914194       -4.0225232129       -0.3836253783
 C         2.9209688541       -3.2307709569       -0.1057993447
 C         3.3623522740       -2.4272211736       -1.4309673479
 C         4.7075224165       -2.6291965992       -2.0862401420
 C         2.5420368350       -2.0701664603        0.9956665862
 C         4.0214719271       -4.0486464467        0.5765751874
 O         0.7135830187       -3.5846870256       -0.9503943313
 O         2.6036655803       -1.5496797047       -1.8565524342
 C         4.3344110409       -2.9592068150       -3.5112748072
 C         3.6795831527       -4.2847677037       -3.4668379725
 C         3.1887305672       -4.8155629301       -4.8144712229
 C         1.9879874250       -3.8619025086       -5.2152193087
 C         0.6274582397       -4.4066860899       -5.4498652922
 O         3.6767933653       -4.9874807957       -2.4921621597
 O         2.2354654104       -2.7012336330       -5.5576188042
 C         4.3103913435       -4.8160266459       -5.9154511059
 C         2.7580526105       -6.3061536200       -4.5188967631
 C        -0.5361550073       -3.3935443195       -5.7069566293
 C        -0.4641132883       -2.1724654420       -4.7717874781
 C        -0.8549929505       -0.6977089888       -5.3815428698
 C        -0.7821324293        0.2551221453       -4.1803590238
 C         0.3734537847        1.3075213245       -4.0667267138
 C         0.0887363801       -0.3477999725       -6.5992816537
 C        -2.3715464617       -0.7220678836       -5.7373501879
 O        -0.3334026458       -2.3542489756       -3.5817110229
 O        -1.6230423273        0.1118691926       -3.2814741569
 C         0.1760474378        2.5724967769       -3.0373988842
 C         0.5496352755        2.2369464897       -1.6047348439
 C         0.4659921261        3.4699635700       -0.7062437316
 C        -0.9515806578        4.1058941669       -0.7671998958
 C        -1.2943481461        5.3696455792       -0.0388313706
 O         0.7872040075        1.1435583801       -1.0829993873
 O        -1.8218150191        3.6219757346       -1.5115764992
 C         0.6325260225        3.0323344897        0.7585549213
 C         1.6065599871        4.4746877904       -1.1826389680
 H         1.1601419191        9.0372464132        2.6089203815
 H         0.9480351789       10.0691080599        4.0642413294
 H         2.5564086189        9.5726378226        3.6080831096
 H        -2.1981523629        8.1155939170        3.3858078343
 H        -0.7900603661        7.0077300804        3.4162576047
 H         1.4541904447        6.3296192850        6.8220270942
 H         0.4002611371        5.6626133235        5.4325576682
 H        -0.3980669587        6.2273787146        7.0099251080
 H         0.2833474366        9.9850343193        6.0649400736
 H         0.0281335746        9.0511443184        7.3674520049
 H         1.6189783918        9.0761138936        6.7274878662
 H        -3.2057910844        6.3252261159        4.9320891949
 H        -3.4202800317        6.0734349666        3.2900245226
 H        -3.2738339208        0.9736109243        3.4747905687
 H        -4.9709293970        1.3635457492        3.5662858626
 H        -2.2743392327        2.4953709745        6.4185491073
 H        -1.1541460063        2.4607017991        5.2238587041
 H        -2.6363748051        1.3763592472        5.0598317578
 H        -4.7786303702        3.1905497985        5.7164495845
 H        -3.8408443936        4.3760593873        6.3767318824
 H        -4.8025113204        4.7185697811        4.8278629001
 H        -3.3549360858        1.6519016876        0.8312909956
 H        -5.0587632905        1.9133836397        1.1287412640
 H        -3.2765169322       -3.2731910669       -1.2023907100
 H        -1.7018045974       -3.2960011763       -0.7712739806
 H        -5.1046158825       -2.3286985514       -1.5874181902
 H        -6.1808035076       -1.2397736946       -0.9609178592
 H        -5.6309988508       -2.3611777724        0.1815522594
 H        -4.0608266393       -0.0269145911       -2.2791260220
 H        -5.2145587009        0.7653578126       -1.2929361358
 H        -3.5471304163        1.1171505533       -1.1870208153
 H        -2.2790775258       -3.2154421844        1.7128990405
 H        -3.9961544836       -3.2111470361        1.3551256686
 H         0.1529723309       -7.2165739825        0.1793095096
 H        -0.2787315827       -5.7915033760       -0.7452409410
 H        -1.0820715190       -5.7936585659        4.0934844703
 H        -2.9535993316       -5.6335353196        3.8782305264
 H        -1.9420707948       -4.2114956818        3.8747436573
 H        -2.9662758916       -7.6124261452        2.4189345289
 H        -2.1574660085       -7.4770967117        0.9389203203
 H        -1.0803745874       -7.7481341983        2.2842381061
 H         1.9053841611       -6.0448268096       -0.9578785474
 H         2.2531975968       -5.7911102088        0.8218443617
 H         5.3062941168       -1.6827400346       -2.1340122750
 H         5.2172353243       -3.4737944701       -1.6908745168
 H         1.6927503998       -1.4159230480        0.6850436334
 H         3.3679022885       -1.3527896619        1.1251664144
 H         2.4422905830       -2.4987143252        1.9613909796
 H         4.9291028666       -3.3168930898        0.6574598354
 H         3.6429679660       -4.3239542690        1.5792948787
 H         4.2878293771       -4.9180238380       -0.1303428273
 H         3.7364458230       -2.2952674627       -4.0617119810
 H         5.1784349994       -2.9310123069       -4.2078114173
 H         0.7818255911       -5.1675417928       -6.1734633999
 H         0.3036763075       -4.9648963260       -4.5526069315
 H         4.3396652013       -3.8180788779       -6.2720598715
 H         3.9509952276       -5.4722295513       -6.7434016966
 H         5.1969161295       -5.1021558635       -5.3898759642
 H         2.6197213488       -6.7439934148       -5.4753591793
 H         3.5870036639       -6.8113889420       -4.0310854539
 H         2.0117631495       -6.3525553298       -3.8027647889
 H        -1.5459002922       -3.9025308810       -5.6618592651
 H        -0.5265266421       -3.1713643632       -6.7737366815
 H         1.3740046188        0.9338019031       -3.8173192620
 H         0.5159157990        1.7830890179       -5.1086591165
 H         1.2197316604       -0.6138045016       -6.4163909267
 H         0.0338616763        0.7426146682       -6.9196532359
 H        -0.3670088295       -0.8756525416       -7.4938205838
 H        -2.5473531468        0.1431566368       -6.3386532149
 H        -2.5952064578       -1.5966522463       -6.2956823981
 H        -2.8970584103       -0.8026455875       -4.7950488347
 H         0.6478506129        3.3986476970       -3.4675980205
 H        -0.8813186800        2.7287789790       -3.1065184005
 H        -1.0823225988        5.1752185962        1.0609599861
 H        -0.6971652852        6.2568980134       -0.3101870876
 H        -2.3676959277        5.5184855684       -0.2207951594
 H         0.3287130205        3.8629789930        1.3841240400
 H         1.6048045409        2.6267993136        1.0617198863
 H        -0.1235578862        2.2062320980        0.9541278002
 H         1.9455281019        5.1892392786       -0.4410040225
 H         2.4964439430        3.9528400716       -1.4050497517
 H         1.4035477882        4.9494266307       -2.0850331051
 Na        0.4983283475       -0.9987209820       -1.4620657879
