155

 C         1.3168063457        9.3543764135        4.2911936602
 C         0.8558834807        8.0648632194        4.6608845970
 C        -0.1805863192        7.8417147574        5.8337248629
 C        -1.5970247449        7.9955359350        5.1955911639
 C        -1.8434949985        7.1392166134        3.8374577469
 C         0.0023645489        6.3377485291        6.3775896320
 C         0.1641744367        8.8386744753        6.9733702485
 O         1.3131050771        7.0756472779        4.0683282902
 O        -2.4647799223        8.7028926224        5.6446787188
 C        -2.8923344045        6.1086610936        4.1164263677
 C        -2.3604750511        4.7156837349        4.3879601662
 C        -3.4079772524        3.5742741790        4.5578374238
 C        -3.4789226525        2.8158197999        3.1769186468
 C        -3.2198419755        1.3076781407        3.0450583163
 O        -1.1924251682        4.4729321205        4.3145035367
 O        -3.8987875993        3.3990372540        2.2381832021
 C        -3.0201388086        2.6829779689        5.7577913653
 C        -4.8444696426        4.0575973881        4.7843653272
 C        -3.1643474536        0.9030875185        1.5571097650
 C        -4.1549526021       -0.2118841692        1.2696811663
 C        -4.3508498095       -0.7390088101       -0.3014319480
 C        -3.1127560780       -1.6525461129       -0.5848738876
 C        -3.1798899398       -3.1512559020       -0.5436064661
 C        -5.6165577012       -1.6090577692       -0.4864682934
 C        -4.2796775188        0.4259228096       -1.2964423599
 O        -4.6806684591       -0.9340791900        2.0555241656
 O        -1.9671426120       -1.1276562324       -0.6572604575
 C        -2.9057615344       -3.6370921006        0.9115416580
 C        -2.7733719198       -5.2100985683        0.9442172812
 C        -1.6749831491       -5.7836057072        1.9388003428
 C        -0.1910255886       -5.3105955798        1.3156254739
 C         0.3497605058       -6.0054423819        0.0804497579
 O        -3.7035052102       -5.8858372320        0.4792648317
 O         0.3425332616       -4.2494506725        1.6125837957
 C        -1.8721744524       -4.9704762195        3.3804471327
 C        -1.6348411707       -7.2629499614        2.2641658900
 C         1.6722843102       -5.4314263080       -0.3206811675
 C         1.6380852270       -3.9181658720       -0.4188624105
 C         2.6813760788       -2.8692118867       -0.0012610032
 C         3.2538906407       -2.2646488020       -1.3387848862
 C         4.6448211945       -2.5709498990       -1.8909265888
 C         1.8355725769       -1.7423440395        0.8396406322
 C         3.8571784021       -3.2492538261        0.9115303543
 O         0.7206095094       -3.4650404035       -1.0479396697
 O         2.6587780306       -1.5093152537       -2.0729311073
 C         4.5890860602       -2.9953169903       -3.3632643078
 C         3.9782562553       -4.4202110939       -3.4044051597
 C         3.4266796207       -4.9571784937       -4.6972932069
 C         2.5114088717       -3.8229716689       -5.4537536752
 C         1.1259241142       -4.0763982433       -5.9884286689
 O         3.9111427546       -5.1079440383       -2.3997138533
 O         3.0827530966       -2.7593605137       -5.6340628156
 C         4.7559471569       -5.2537025137       -5.4162986710
 C         2.6430437357       -6.2617379788       -4.4686239717
 C         0.4906499694       -2.7092768775       -6.3602254257
 C         0.0700192628       -1.8456930775       -5.1752465964
 C        -0.7748617972       -0.5942970522       -5.4643250111
 C        -0.5871450984        0.4223974014       -4.1679834981
 C         0.8500068734        0.9234787187       -3.9595632120
 C        -0.2681020307       -0.0194369058       -6.8353216255
 C        -2.2990431580       -0.7214423175       -5.5002268155
 O         0.3231316834       -2.2465054322       -4.0230391035
 O        -1.4283595393        0.5139856471       -3.3310701459
 C         0.9870123439        2.1555426513       -3.0218295520
 C         0.6599440986        1.8976300354       -1.5447434083
 C         0.5896847386        3.1796930631       -0.5252428194
 C        -0.8286734640        3.8439803849       -0.8121826311
 C        -1.1124171767        5.1763345048       -0.0679382348
 O         0.4530539629        0.8225314636       -1.0766383237
 O        -1.5674519351        3.2435470597       -1.5446295607
 C         0.6467919700        2.5329585499        0.8516995973
 C         1.6315021594        4.1888060936       -0.8063469435
 H         1.0989922417       10.2382477325        4.9223843836
 H         2.4094135052        9.3302508705        4.1499592645
 H         0.8536590350        9.5636204541        3.3452074870
 H        -2.1257476374        7.7260291770        2.9404091749
 H        -0.9182008732        6.7170228829        3.6430771203
 H         0.6623239613        6.3347575465        7.1448725057
 H         0.4373632202        5.7608532300        5.5531389029
 H        -0.9528958252        5.9722355218        6.5833628319
 H         0.2392771376        9.9149374397        6.6804561427
 H        -0.4676837452        8.6572003717        7.8711360479
 H         1.1463898088        8.5402566809        7.3877074340
 H        -3.5952673421        6.5114288482        4.8253174863
 H        -3.5781768295        5.8002540992        3.3195513242
 H        -2.2582958957        1.1273483246        3.5751730065
 H        -3.9768229245        0.6925750862        3.5231807444
 H        -2.8391519475        3.3016612310        6.6136930346
 H        -2.2955018488        2.0281457325        5.5521611663
 H        -3.8599094650        2.0894767315        6.0966678750
 H        -5.4203569945        3.1252007566        4.8278118682
 H        -4.8755272666        4.6145635307        5.7615332543
 H        -5.2673164106        4.7526405450        4.0409245705
 H        -2.2579626414        0.5765838366        1.2442523900
 H        -3.4057912430        1.7194882008        0.9137256352
 H        -4.0802247758       -3.5542694484       -0.8936973897
 H        -2.3101225021       -3.4372269471       -1.0113620056
 H        -5.6701527498       -2.1030257360       -1.4382254074
 H        -6.5547851855       -1.0916028465       -0.1900498182
 H        -5.4928922570       -2.4306529842        0.2442329025
 H        -5.0839902597        0.3462481237       -2.0676841751
 H        -4.5187773895        1.4737069875       -0.8933337138
 H        -3.2711678141        0.4791717849       -1.8388973646
 H        -2.0144627730       -3.1724583309        1.3970898233
 H        -3.6764658223       -3.5004511869        1.5876091426
 H         0.2238442805       -7.0901895344        0.2117013659
 H        -0.3471248065       -5.7779570762       -0.7445888989
 H        -2.4090504520       -5.6922696942        4.0652483032
 H        -2.5568837108       -4.1513674157        3.2499097974
 H        -0.9640592833       -4.7305554105        3.8648007172
 H        -2.0635272065       -7.4175268521        3.2382563564
 H        -2.2320052350       -7.7951619438        1.5094241849
 H        -0.6124722463       -7.7146742105        2.3171944369
 H         2.0924613131       -5.8139973677       -1.1828735074
 H         2.4890724448       -5.6589249874        0.4568166321
 H         5.1465371069       -1.5783688945       -1.9110821488
 H         5.3254174845       -3.2803151082       -1.3827519221
 H         0.7590268576       -1.8592565351        0.7182983411
 H         2.1940703549       -0.7455207998        0.5743081285
 H         1.8340739885       -1.9042606351        1.8956136091
 H         4.5377725173       -2.3553460846        1.0255851804
 H         3.4798637196       -3.4059293419        1.9264308739
 H         4.4594435078       -4.1050892791        0.5886339317
 H         4.1699592154       -2.3248992087       -3.9747040484
 H         5.5897818821       -2.8577500350       -3.7435167398
 H         1.1216919549       -4.8425717947       -6.7654305671
 H         0.4020862471       -4.4727834012       -5.2315533655
 H         5.2472058876       -4.3032993455       -5.5997968392
 H         4.5473132549       -5.8916912047       -6.3242668977
 H         5.3249765971       -5.9163972233       -4.7097898321
 H         2.4256888167       -6.7474971955       -5.4556865453
 H         3.2786515070       -6.9249316739       -3.8112159292
 H         1.6529848650       -6.0345288054       -4.1613845598
 H        -0.4202391866       -2.9849543412       -6.8730702514
 H         1.1629577676       -2.2520128285       -7.0786607733
 H         1.4614600020        0.1259215513       -3.5583147052
 H         1.3432266181        1.1386685086       -4.9063324546
 H         0.7543379585        0.1200462724       -6.7047620244
 H        -0.8221784525        0.9026824302       -6.9546506000
 H        -0.4621638188       -0.6919610850       -7.5882993118
 H        -2.6803483660        0.2860744033       -5.6414732467
 H        -2.6380456274       -1.4291422157       -6.2675009697
 H        -2.5763263252       -0.9696851943       -4.4336290019
 H         2.0360242861        2.4307551386       -3.0563053421
 H         0.4680701292        3.0526945841       -3.4647216740
 H        -0.4116054134        5.1445975995        0.6733537353
 H        -1.0308903938        6.1081883825       -0.6196927327
 H        -2.0910825740        5.1625860385        0.4288249379
 H         0.4856790827        3.3260707764        1.5796001965
 H         1.5019002835        1.9818845612        1.0886563809
 H        -0.2170296476        1.8883484997        0.8401270811
 H         1.5212575773        5.1906347235       -0.3589897702
 H         2.5672003028        3.7921758420       -0.3912314152
 H         1.7514835320        4.4982251659       -1.8889523542
 Na        0.1555666156       -1.4428831746       -1.6640369017
