155

 C         1.2881561534        9.5874193745        4.3681172320
 C         0.8739773494        8.1180617139        4.8047389905
 C        -0.1366981620        7.8321403926        5.9084203506
 C        -1.5378458138        7.9033429858        5.1330748964
 C        -1.7274061353        6.9617996758        3.9228687201
 C        -0.0653487679        6.4435191449        6.5448485741
 C        -0.1749964834        8.8885842564        7.0773243208
 O         1.3334962347        7.3019341915        4.0317003047
 O        -2.2748540389        8.6979485890        5.6592252508
 C        -3.0102805081        6.1290454555        4.0811217663
 C        -2.6787219496        4.6361570620        4.3847332325
 C        -3.6822975807        3.4245607777        4.5329579139
 C        -3.6637776518        2.6950894274        3.1166118280
 C        -2.9077674244        1.3653442766        2.8654626636
 O        -1.4955515102        4.2840940981        4.3064824813
 O        -4.0896765738        3.3466773110        2.1576415619
 C        -3.1366470371        2.6650181852        5.7772437584
 C        -5.1005604273        3.9959623092        4.7421769986
 C        -3.0648866854        0.9171717834        1.3779701068
 C        -4.0169046069       -0.2585803531        1.1862558727
 C        -4.2724963983       -0.7960614728       -0.2286628379
 C        -3.0659519177       -1.6246722060       -0.7112587678
 C        -3.0606115590       -3.2116723232       -0.5904445760
 C        -5.6485883033       -1.4635859497       -0.1629856127
 C        -4.3965722251        0.3323753427       -1.3277159902
 O        -4.7048093521       -0.7059085471        2.1381531487
 O        -2.0228547845       -1.0816722101       -0.8710206876
 C        -2.9166243995       -3.6713151357        0.8525037814
 C        -2.7348378629       -5.2098344606        0.9575708263
 C        -1.7179737901       -5.6254608265        1.9859166737
 C        -0.2727455273       -5.2150903245        1.4941269470
 C         0.3764008484       -5.9554956506        0.2860376097
 O        -3.4619976381       -6.0572616325        0.5165018230
 O         0.3664891341       -4.3654378478        2.1027073510
 C        -1.8095622344       -5.0657957894        3.4067355679
 C        -1.7222901662       -7.1092673653        1.9824883945
 C         1.7723824163       -5.3625332324        0.0560174667
 C         1.5728699390       -3.8756619130       -0.4132148773
 C         2.6279779026       -2.6932323416        0.0837658593
 C         3.2049377631       -2.2798285932       -1.2805187245
 C         4.6101510570       -2.5601894585       -1.7170761347
 C         2.0055185675       -1.4612897758        0.6970705355
 C         3.6013621805       -3.4268337681        1.0289037657
 O         0.5858165139       -3.5976128191       -1.1013754018
 O         2.4595689089       -1.6953924891       -2.0686392963
 C         4.7658375968       -3.0781518856       -3.1648390455
 C         4.0927811903       -4.3824764848       -3.3393350291
 C         3.5598838766       -4.8269778977       -4.7523349887
 C         2.8584787279       -3.7378418284       -5.5703368519
 C         1.3688751139       -3.9903626878       -6.0291134998
 O         3.8003697311       -5.0774462961       -2.3785421447
 O         3.4394306551       -2.7281514869       -5.9776227174
 C         4.6691755035       -5.3176817368       -5.7760861872
 C         2.6541478357       -6.0648376509       -4.5507728653
 C         0.5110603193       -2.7091705371       -6.4955564712
 C         0.1597271266       -1.9001139703       -5.2757389978
 C        -0.7092485282       -0.5850068492       -5.4821358584
 C        -0.5355408217        0.2452400716       -4.1107552241
 C         0.9415288275        0.8697576800       -3.8544473558
 C        -0.2961309411        0.4434622449       -6.5663108661
 C        -2.2550944892       -1.0570854060       -5.6937026406
 O         0.3285015906       -2.2464132814       -4.1408440987
 O        -1.4511530557        0.4637709473       -3.3242792320
 C         1.0773214094        2.1365066526       -2.9642591754
 C         0.8098506496        1.8835079722       -1.4486101918
 C         0.6520971905        3.1276441122       -0.5259255846
 C        -0.7940652343        3.7506220767       -0.8876047551
 C        -1.2813851956        4.9617173865       -0.0271432581
 O         0.5291605958        0.7694889485       -1.0309658330
 O        -1.5141379882        3.1863036999       -1.7003619803
 C         0.6495740428        2.7427912622        0.9814255666
 C         1.8839986651        4.0399744736       -0.7039382439
 H         1.4171965018       10.3586735647        5.1632216207
 H         2.3153680505        9.5419294158        3.9409782274
 H         0.5623267260       10.0817447996        3.6735669505
 H        -1.8825940664        7.5781269693        3.0398267763
 H        -0.7467522738        6.4259856518        3.7155120638
 H         1.0238921805        6.3673340763        6.9308496257
 H        -0.2601102088        5.6654138825        5.7918846048
 H        -0.9449554674        6.4258237807        7.2646494086
 H        -0.4273868450        9.8759689866        6.7087923492
 H        -0.9667150013        8.5667234365        7.7673619986
 H         0.7531773035        9.0072917116        7.6614960142
 H        -3.6799624009        6.5516578172        4.8591695458
 H        -3.6561090250        6.0394901178        3.2191856434
 H        -1.8590206886        1.5704516247        3.1230624712
 H        -3.3591255096        0.6589632861        3.5997463383
 H        -3.7851553530        2.8658260905        6.6056558709
 H        -2.0113828730        2.8558386472        5.9604539517
 H        -3.2835151460        1.5704301406        5.6627905638
 H        -5.7443113685        3.2247253007        5.1204652781
 H        -5.0969440109        4.7691054529        5.4701594585
 H        -5.4524775542        4.4882801945        3.8525533636
 H        -1.9754068254        0.7013887919        0.9589006421
 H        -3.4839773005        1.7705024247        0.7646418683
 H        -3.9773039206       -3.7235936587       -0.9634804313
 H        -2.0778327945       -3.4328767427       -1.0938424150
 H        -5.8861978933       -1.8031882902       -1.1966289682
 H        -6.3269214423       -0.7381651763        0.1664663891
 H        -5.7469600974       -2.3278502919        0.4428190869
 H        -4.8239500435       -0.0818326844       -2.2245363485
 H        -5.0872184255        1.0695730641       -1.0433204878
 H        -3.4777964093        0.7909508593       -1.5388499982
 H        -2.0633699138       -3.3001419166        1.3544627795
 H        -3.8375177472       -3.3448866094        1.4886389150
 H         0.3982612286       -6.9870276547        0.6665843742
 H        -0.2990326508       -5.9969956338       -0.5841743672
 H        -1.7439351192       -5.8440394551        4.0884713232
 H        -2.7777947395       -4.6178277385        3.5394772449
 H        -0.9209264770       -4.4135894709        3.6531413379
 H        -2.7265331509       -7.4184788251        2.4319544811
 H        -1.6577627546       -7.5069244368        0.9883669333
 H        -1.0200271884       -7.5261243196        2.6669810748
 H         2.4259393657       -6.0216674963       -0.6261780998
 H         2.3391338837       -5.3657780786        0.9458442605
 H         5.2469257485       -1.6892342397       -1.5639566912
 H         4.9332597267       -3.3369447743       -1.0437028231
 H         1.0288683909       -1.5809679279        1.1357210037
 H         1.9855096043       -0.7012744984       -0.0537258161
 H         2.5771196182       -1.1118787387        1.5401697244
 H         4.4976922031       -2.7961186999        1.3431568165
 H         3.1026034595       -3.6834171896        1.9868803972
 H         4.1318756495       -4.2562953060        0.4445756547
 H         4.4579320187       -2.2464588369       -3.9444629640
 H         5.8517481493       -3.1356806221       -3.4556958595
 H         1.3880817295       -4.7073028880       -6.8642925610
 H         0.7249233459       -4.4148707012       -5.2904986647
 H         5.2532663353       -4.4024223696       -5.9761447761
 H         4.1552612061       -5.7369267878       -6.6353028434
 H         5.2200783609       -6.1667221612       -5.3917826301
 H         2.1247874195       -6.2898777375       -5.4325520768
 H         3.3024465269       -6.8438086948       -4.2597395473
 H         1.8293070222       -5.8894034754       -3.8286630533
 H        -0.3604249331       -3.0711516137       -7.1018820627
 H         1.1921110643       -2.1616029494       -7.1643852167
 H         1.5533349066        0.0349504218       -3.3784047507
 H         1.4997414881        1.0512835436       -4.8149399466
 H         0.8486226129        0.3967854196       -6.5518765895
 H        -0.7532779148        1.4006878904       -6.2771055751
 H        -0.7555436473        0.0549626047       -7.5265644932
 H        -2.8534284951       -0.2049841570       -5.7907724725
 H        -2.2083868493       -1.6902067300       -6.5279746547
 H        -2.6998145632       -1.5986003874       -4.8213683576
 H         2.0570350294        2.5919783559       -3.1463531201
 H         0.4400578780        2.8949796908       -3.3262395809
 H        -0.6663619734        5.1420106328        0.9132444860
 H        -1.1846716286        5.7943475078       -0.7033850966
 H        -2.3155400329        4.9077285588        0.2534807671
 H         0.7291893548        3.6518815938        1.5824052303
 H         1.5812509290        2.0906211864        1.0609376639
 H        -0.1963136826        2.0930715539        1.3152814110
 H         1.7366533852        4.9798385819       -0.1629692482
 H         2.8517108784        3.6595450935       -0.3951459911
 H         1.9225345131        4.3500167375       -1.7040933287
 Na       -0.0804249841       -1.4163944462       -2.0111762113
