155

 C         1.1476823562       10.0652207408        5.1146372952
 C         0.6229843904        8.5521872462        4.9311385784
 C        -0.3812073568        7.9794921560        5.9578611992
 C        -1.6963069779        7.6727973883        5.1393892547
 C        -1.5753391343        6.5120085425        4.1481948660
 C         0.2595840632        6.7011628231        6.5635339270
 C        -0.6018829777        8.9264989560        7.1436014312
 O         1.0553299889        7.6976905911        4.1160647319
 O        -2.7369652224        8.2395475728        5.4017318083
 C        -2.9279941746        5.7791621632        4.3368505832
 C        -2.8413755015        4.2333918952        4.3166685966
 C        -4.1602270593        3.2846522009        4.1387014499
 C        -3.9392411128        2.6840583062        2.7411611272
 C        -2.5904402848        1.9016761526        2.3294978886
 O        -1.7738203823        3.7425018787        4.5115044257
 O        -4.8995827406        2.8631967956        1.9533661923
 C        -4.1121063325        2.1612194611        5.2791706893
 C        -5.5056755278        4.0977579113        4.1872224141
 C        -2.9096391052        1.2358053308        0.9777052977
 C        -3.8372421604        0.0049412035        1.1678370610
 C        -4.2784808256       -0.8457999730       -0.0506127784
 C        -3.0930733449       -1.5603846072       -0.6373639700
 C        -2.8911539450       -3.0722421219       -0.4804145905
 C        -5.4769018297       -1.6972529097        0.2863167448
 C        -4.7073048361        0.1614058716       -1.2278568336
 O        -4.0496563104       -0.3918998939        2.2987549814
 O        -2.0915726012       -0.8517326335       -1.0471421706
 C        -2.7595927357       -3.4470178095        1.0067054057
 C        -2.4762598231       -4.9536710867        1.0518156249
 C        -1.9372501955       -5.7762118338        2.2781656779
 C        -0.4177382158       -5.4275686868        2.0634099710
 C         0.5290435250       -6.0683269821        0.8403484091
 O        -2.6350682917       -5.6681988734        0.1110714067
 O         0.1824869260       -4.6160937309        2.6690085105
 C        -2.3829653078       -5.3129095125        3.6524813929
 C        -2.1313787845       -7.3014119683        2.0998149671
 C         1.7477649108       -5.1141881130        0.8416097276
 C         1.4405918900       -3.7704048730        0.1405413942
 C         2.6753682051       -2.8030866837        0.1821193477
 C         3.0647756835       -2.5742871992       -1.2717421079
 C         4.5782559174       -2.7024728389       -1.6980181220
 C         2.2843497640       -1.4473757930        0.8123988246
 C         3.8111027992       -3.5136599185        0.9702840228
 O         0.3921972817       -3.5112221794       -0.3890061784
 O         2.3324772690       -1.9469177314       -2.0308377494
 C         4.5285941241       -3.0493812594       -3.2100403564
 C         3.7637983012       -4.3181454820       -3.5659760064
 C         3.7993534104       -4.7912407726       -5.0451658077
 C         3.3011591324       -3.5240481972       -5.8883278746
 C         1.9780611941       -3.6281677482       -6.6489560898
 O         3.0027203631       -4.9274900816       -2.8060834884
 O         4.0493474184       -2.5671554623       -5.9161588225
 C         5.2962830733       -5.0354490689       -5.4003016875
 C         2.9162996938       -6.0838309843       -5.3257882600
 C         1.0475172695       -2.3373303457       -6.7793931046
 C         0.4046954307       -1.7738936252       -5.4513123942
 C        -0.4608763557       -0.5061669354       -5.5787606081
 C        -0.2663993550        0.2777886032       -4.2425285440
 C         1.2238063966        0.9026315338       -4.0134346377
 C        -0.1036227333        0.4020925725       -6.8428064068
 C        -1.9276506681       -1.0802077685       -5.7087915757
 O         0.5076947781       -2.3628826102       -4.3666050065
 O        -1.1420802598        0.5447171316       -3.4748647905
 C         1.2115408255        2.1289660085       -3.0592104570
 C         0.7543308845        1.8555276263       -1.6087755198
 C         0.6710356116        3.0261453731       -0.5114464927
 C        -0.7680589792        3.7545096839       -0.7321721865
 C        -1.3379491987        4.6604511460        0.3386267236
 O         0.4305116247        0.7032743529       -1.2495701566
 O        -1.4242144004        3.6763921309       -1.7489955143
 C         0.5881244570        2.3358538281        0.8630216905
 C         1.8123100571        4.0461385040       -0.7671839465
 H         1.7868516400       10.1916871527        5.8972752880
 H         1.5702389940       10.5294009794        4.2759616054
 H         0.3161758559       10.7392044298        5.4224245135
 H        -1.5526221527        6.9009294589        3.0896768480
 H        -0.6268182866        6.0000219870        4.3394518693
 H         0.4892477801        6.9227753083        7.6566143406
 H         1.0980398301        6.3892165870        5.9750246743
 H        -0.5749321616        5.9184229204        6.6038291333
 H        -1.0130184667        9.8762080856        6.9212285738
 H        -1.3411734998        8.4675734085        7.7848788935
 H         0.3721798078        9.0339724723        7.6145763137
 H        -3.2540131269        6.0987195251        5.3769199728
 H        -3.7084429455        5.9604575022        3.4779101487
 H        -1.8329134626        2.6605329771        2.1655718434
 H        -2.4646411540        1.1355876840        3.1158431753
 H        -4.1779735916        2.6209664703        6.3225164969
 H        -3.0054498357        1.7575596379        5.2502459145
 H        -4.8570599531        1.4313386874        5.0300120120
 H        -6.4045648590        3.4612349212        4.1838460202
 H        -5.5764788688        4.6802981679        5.1004978837
 H        -5.6807598758        4.6791162425        3.3230153540
 H        -1.9164694809        0.8059141411        0.7458156030
 H        -3.2616024858        2.0392922481        0.2920906119
 H        -3.7854609441       -3.5896418844       -0.9579544318
 H        -2.1019811101       -3.5398679519       -1.1288162444
 H        -5.9894448812       -2.1031431301       -0.5040059946
 H        -6.1833922266       -1.0062424867        0.8009132998
 H        -5.1726461669       -2.4653743367        0.9886809720
 H        -5.4772340252       -0.3532372812       -1.7291394480
 H        -5.0174861308        1.0781336757       -0.8760673480
 H        -3.9504898706        0.3306135108       -1.9190601435
 H        -1.7942598023       -2.9439270688        1.4405006958
 H        -3.6511999468       -3.1934611665        1.5093375710
 H         0.7573156865       -7.0106936385        1.2561108734
 H         0.1405462200       -6.1161163686       -0.1923038599
 H        -2.2645809262       -4.2126845415        3.8382478708
 H        -1.7844636505       -5.9007722083        4.4001759573
 H        -3.3778434928       -5.5799772128        3.8533569557
 H        -2.8252578573       -7.8050666668        2.6874791383
 H        -2.4449434830       -7.5293385800        1.0604549179
 H        -1.1623245407       -7.8212949754        2.2145865816
 H         2.6029669240       -5.5888231529        0.3258473925
 H         2.1287914956       -4.9007289796        1.8076053734
 H         4.9494344951       -1.7025127351       -1.5741801506
 H         5.2655897532       -3.3927625440       -1.1763386591
 H         2.7370325333       -1.2891866556        1.7611002090
 H         1.2735149302       -1.3824301018        1.1154352474
 H         2.4773853546       -0.6790834076        0.0054877386
 H         4.7213067911       -2.9369103732        1.0599941713
 H         3.6032579043       -3.7665885228        2.0210065937
 H         4.1726410648       -4.4588033673        0.6100170436
 H         4.0898865184       -2.1981290228       -3.7738323184
 H         5.5275239911       -3.1479658678       -3.4673771145
 H         2.3568906814       -3.6353525329       -7.6839222348
 H         1.2532191928       -4.4219646741       -6.5215682298
 H         5.8859497939       -4.0917382368       -5.5594034195
 H         5.2776232164       -5.5602515812       -6.3229392249
 H         5.7341327447       -5.6398402186       -4.6053499241
 H         2.8952913906       -6.2651341048       -6.3694095638
 H         3.2983538113       -6.9585282217       -4.9191032371
 H         1.9417870683       -6.0467850624       -4.8378396438
 H         0.2806405554       -2.6105884407       -7.4723790835
 H         1.7428644305       -1.6423255426       -7.2593994519
 H         1.7663524207        0.1028693264       -3.4964896411
 H         1.6768951861        1.1169380295       -4.9324570151
 H         0.9806184468        0.4336082493       -6.8692715186
 H        -0.5324386264        1.3549398132       -6.6363290763
 H        -0.5660773186       -0.1403039863       -7.7598886210
 H        -2.6556389905       -0.2112444810       -5.9957447763
 H        -2.0070083032       -1.8801545626       -6.5526027277
 H        -2.1870528910       -1.5817342190       -4.8120862181
 H         2.1838022617        2.6306419126       -3.0296883946
 H         0.5211956051        2.9549990541       -3.3989494980
 H        -0.6663976761        5.0941356698        1.1322671367
 H        -2.0527314861        5.3805837108       -0.1079606645
 H        -1.9632669742        3.9799034355        0.9220826923
 H         0.3210163672        3.1553759849        1.6044704634
 H         1.4951413392        1.7581827562        1.2018087693
 H        -0.2516759152        1.6576010405        0.7548569524
 H         1.6393236545        4.8844834788       -0.1817652868
 H         2.7673715730        3.6206679238       -0.5539196809
 H         1.7915209967        4.4197153166       -1.8048577834
 Na       -0.1489821564       -1.6000413576       -1.9390889859
