155

 C         0.6318611265       10.2720815548        5.2515018251
 C         0.1406716589        8.8944939239        5.0490241784
 C        -0.6875324217        8.0619173353        6.3133846710
 C        -1.9714875721        7.3486304153        5.5748823833
 C        -1.6531610326        5.8432536882        5.0187786475
 C         0.3720911807        7.0765429039        6.8426086172
 C        -1.1065204905        9.0871861711        7.3834490127
 O         0.3818094913        8.3833078815        4.0037925400
 O        -3.1011956038        7.8085860858        5.6371962964
 C        -3.0576536644        5.3972292086        4.3877967265
 C        -3.1798986055        3.9288227255        4.5232666855
 C        -4.5750330721        3.3326938383        3.9019423059
 C        -4.3701692745        2.5777356446        2.5485148452
 C        -3.1150215333        1.6258073673        2.4017883018
 O        -2.3113836030        3.1829335666        4.9609533716
 O        -5.1978861395        2.7271128051        1.7078650829
 C        -5.0656530813        2.2913267835        4.9359617856
 C        -5.6541650655        4.5279901587        3.7655019742
 C        -2.9807093342        1.0180982185        0.9722773230
 C        -3.6210057329       -0.3984706807        0.9466835056
 C        -4.1502145279       -1.1303304943       -0.4095682835
 C        -2.9576854148       -1.8755824810       -0.9509014793
 C        -2.8110480499       -3.3606844104       -0.7985937930
 C        -5.4520483846       -1.9187779484       -0.0481338234
 C        -4.7084764086       -0.0289265766       -1.3812248877
 O        -3.6201770043       -1.0057506580        1.9673619915
 O        -1.9856247453       -1.2704681790       -1.5163212366
 C        -2.6276718060       -3.7820991663        0.6252501136
 C        -2.5367982917       -5.3167931679        0.8548385782
 C        -2.1253815365       -5.8230665793        2.2538384313
 C        -0.5495526580       -5.5315065294        2.5392891204
 C         0.3165615917       -5.8385014539        1.2418580221
 O        -2.7607280704       -6.0928261800       -0.0573798420
 O        -0.1054205056       -4.9337901485        3.4735130105
 C        -3.0858061106       -5.2126486399        3.3555248727
 C        -2.4359158236       -7.2289510971        2.4363615875
 C         1.6325230249       -4.8992119695        1.3434707133
 C         1.5325174146       -3.6233677459        0.4577755989
 C         2.8464283385       -2.5083678608        0.5725182653
 C         3.1932754043       -2.4565562914       -0.9689118321
 C         4.1835488492       -3.5587349169       -1.3799331839
 C         2.2818484754       -1.1878470694        1.0386412694
 C         4.0624141045       -2.9402955311        1.3900505836
 O         0.6185702217       -3.3574976337       -0.2896842086
 O         2.5574704406       -1.7588016750       -1.7865189846
 C         4.7593598435       -3.4341049183       -2.8222423191
 C         3.8622016092       -4.3682241942       -3.7774982218
 C         4.2812011435       -4.5187302675       -5.2592000510
 C         3.3922408380       -3.5430179465       -6.1049250081
 C         1.8965552439       -3.8416310890       -6.0732406741
 O         2.7796793623       -4.7568947203       -3.4013933834
 O         3.8145335196       -2.6724503715       -6.8313720430
 C         5.7325859979       -4.1779489703       -5.6066553930
 C         3.9155088024       -5.8718872875       -5.7935375629
 C         1.1128402306       -2.6221569059       -6.6446988695
 C         0.5194138661       -1.7418021233       -5.4866607159
 C        -0.3710519651       -0.4806752886       -5.7344794771
 C        -0.2762360844        0.3322001977       -4.3734797774
 C         1.0797278973        1.1309400704       -4.1192524813
 C         0.1687104328        0.3468191064       -6.8799137186
 C        -1.8073990231       -0.9828277535       -6.0891868369
 O         0.9801646133       -1.8590047530       -4.3815331347
 O        -1.1541100581        0.3484946402       -3.5459724535
 C         0.8838841770        2.3450441506       -3.2804425587
 C         1.0344177176        2.0519675601       -1.7419879848
 C         1.0175645060        3.2356231125       -0.5969435813
 C        -0.2521878672        4.0218970657       -0.7761258282
 C        -0.5467045368        5.2407320275        0.1960204886
 O         1.1138368497        0.9387398330       -1.2990264493
 O        -0.9919299321        3.7876535907       -1.7371445672
 C         0.8664877579        2.5899396264        0.8122276968
 C         2.3012481124        4.1195268922       -0.7002151584
 H         1.6664690490       10.3401770088        5.8160099501
 H         0.7694498921       10.7141298395        4.2026920996
 H        -0.0131948984       11.0139412918        5.7262436715
 H        -0.8150203873        5.9499739194        4.3703621578
 H        -1.3235945997        5.1549086981        5.7669951656
 H         1.1999449267        7.6737409957        7.1841109175
 H         0.8313922613        6.4393988390        6.0815063116
 H        -0.0007365867        6.4411702823        7.5961719297
 H        -1.9604818220        9.6454773298        6.9811206139
 H        -1.3609761326        8.5428073310        8.3116038559
 H        -0.2127928520        9.7262118702        7.6777861469
 H        -3.8682504652        5.8765682953        4.8751546723
 H        -3.1229209638        5.6655885395        3.3521785383
 H        -2.2683127711        2.2300211732        2.6660163763
 H        -3.1266571794        0.8512510653        3.2407014166
 H        -4.8156003115        2.6268788648        5.8740660055
 H        -4.5925633133        1.4235483426        4.5824452880
 H        -6.1807747116        2.1807719384        4.9470300308
 H        -6.6416984053        4.0995939439        3.4717365481
 H        -5.8135449487        5.1082071661        4.6641426324
 H        -5.3293852967        5.3115885425        3.0706523512
 H        -1.8843073727        1.0014290081        0.5227482217
 H        -3.4356656296        1.7716093390        0.2867684436
 H        -3.7887676580       -3.8264196547       -1.1726898570
 H        -1.9025944964       -3.7044421279       -1.3206879490
 H        -5.7501461150       -2.7465539463       -0.7338873806
 H        -6.2154808137       -1.1922170321        0.1519830563
 H        -5.3178100450       -2.3121704027        0.9547832766
 H        -5.0492561839       -0.6212488654       -2.2881288741
 H        -5.7025664427        0.3135402425       -0.9786894332
 H        -3.9241553420        0.7136316668       -1.6788104347
 H        -1.7562957451       -3.2260665403        1.0745902660
 H        -3.4505070488       -3.5621176212        1.2772128791
 H         0.5208795204       -6.9022150760        1.1473348567
 H        -0.0898133886       -5.6454905848        0.1965847662
 H        -2.6666870232       -5.1854531262        4.3326303562
 H        -4.0289140119       -5.7226354563        3.4103776546
 H        -3.2875813196       -4.1165515623        3.1638000530
 H        -3.5337906767       -7.4722614443        2.2419719918
 H        -1.8637248877       -7.8358649159        1.7479209747
 H        -2.2945837846       -7.6385925225        3.4119100703
 H         2.5565701393       -5.5051609880        1.0510982727
 H         1.6657336841       -4.5656214624        2.3407406258
 H         4.8806591504       -3.5615328193       -0.5800764144
 H         3.6737576959       -4.5713489320       -1.2911134301
 H         1.2991578698       -0.9851596457        0.6479279131
 H         2.9869358474       -0.4305363461        0.7379205954
 H         2.0636208418       -1.0404830569        2.1138650407
 H         5.0284572538       -2.4524085568        1.2726696722
 H         3.9747476037       -2.9492689339        2.4717246118
 H         4.5475966399       -3.9303936742        1.2037823295
 H         4.5945268401       -2.3630367809       -3.1056834610
 H         5.7498366159       -3.7574994865       -2.7097670194
 H         1.6038567256       -4.7145343341       -6.6684138133
 H         1.5379687186       -4.0943833276       -5.0855702196
 H         5.9760561324       -3.0731413071       -5.5003835130
 H         5.9617473553       -4.6180468309       -6.5495555757
 H         6.4927201863       -4.7058069164       -4.9951975919
 H         4.2029812455       -5.9720719466       -6.8548692644
 H         4.5103832339       -6.5963088820       -5.2595906075
 H         2.8217950857       -6.1574626488       -5.8711215282
 H         0.4192092667       -2.9012710602       -7.4416895331
 H         1.8720098336       -1.9870859065       -7.2543424806
 H         1.8809903334        0.3500828277       -3.7655735207
 H         1.2888365949        1.5275382316       -5.0992816371
 H         1.2866956751        0.5622988741       -6.7981979245
 H        -0.3927097450        1.2773315957       -7.0497033530
 H        -0.0157585949       -0.2014675499       -7.7882104399
 H        -2.5353614757       -0.2969351906       -6.2794792459
 H        -1.7937433339       -1.7193875106       -6.8305139987
 H        -2.1822161298       -1.5094370828       -5.1482939140
 H         1.5179375720        3.1291933061       -3.5715122468
 H        -0.1361281792        2.7305998401       -3.3872261197
 H         0.2715871953        5.9385860246        0.4831243305
 H        -1.3122426981        5.8349156532       -0.2253644456
 H        -0.8812871008        4.8792984564        1.1238201287
 H         1.0930609425        3.2442027731        1.5836336766
 H         1.5232932512        1.7137318861        0.8246619483
 H        -0.1231310724        2.2573341392        0.9805343391
 H         2.2076172868        4.9568398100        0.0146935959
 H         3.2521590218        3.5547468213       -0.4332972070
 H         2.2916429727        4.4371011768       -1.7434724818
 Na        0.3982967248       -1.4028784768       -1.7728168513
