155

 C        -0.2228932199       10.1964856985        4.8788522422
 C        -0.4032402283        8.6852311479        5.0102683184
 C        -0.8980966486        7.9995288434        6.4202213252
 C        -2.2500852579        7.1816202525        6.1144166824
 C        -1.9475755147        5.7171722874        5.5413187695
 C         0.2931840521        7.1022695977        6.8835913332
 C        -1.3237923548        9.0380810249        7.4807822494
 O        -0.2089012133        7.9467607237        4.0626153661
 O        -3.3284990964        7.6577992193        6.2509683360
 C        -3.2214384167        5.3544176887        4.6877104204
 C        -3.4730324880        3.8845852956        4.3535486024
 C        -4.7523227143        3.3358464902        3.6943331393
 C        -4.2976081823        2.7179295009        2.3584481603
 C        -3.6131294019        1.3666800187        2.4483921646
 O        -2.6300763650        3.0749738148        4.6306009816
 O        -4.7802454956        3.1751258811        1.3078871855
 C        -5.2760470028        2.2300915827        4.6668530061
 C        -5.9058337781        4.3209584541        3.5610401216
 C        -3.3163835124        0.7529295348        1.0958700098
 C        -3.9762880172       -0.5554296669        0.7467982390
 C        -3.8833943912       -1.1192914505       -0.6993429863
 C        -2.4905835902       -1.8467727300       -0.6911451183
 C        -2.6475093121       -3.4057168539       -0.6235576066
 C        -5.0990513315       -1.9815032417       -0.9982183948
 C        -3.8411354929        0.0024163923       -1.8013424194
 O        -4.3490586407       -1.2817210623        1.6840404254
 O        -1.5152663955       -1.2553366234       -1.0787717466
 C        -2.7425763703       -3.9469514320        0.7905559452
 C        -2.8694429783       -5.5444974042        0.8666058366
 C        -2.2020681275       -6.1062635118        2.2205071601
 C        -0.9231450258       -5.2390828710        2.3783217082
 C         0.1055955531       -5.2484286960        1.2939017910
 O        -3.3400181390       -6.3159045412        0.0751166481
 O        -0.6060728590       -4.8175523289        3.4772098676
 C        -3.0342256901       -5.5905975422        3.4986399389
 C        -2.0593492992       -7.6343674621        2.1460561251
 C         1.3571757889       -4.3106178639        1.4596489421
 C         1.5309311187       -3.2856587267        0.3045027252
 C         2.8997973409       -2.3877322794        0.3409552996
 C         3.4222559482       -2.4428596847       -1.1041234936
 C         4.3837486093       -3.6123756358       -1.4114097568
 C         2.6204180927       -0.9110569152        0.7588590527
 C         3.8830047680       -2.9827750367        1.3054678774
 O         0.6793040210       -3.1155989628       -0.6139587120
 O         3.0478577400       -1.7215736743       -1.9879286774
 C         5.1087303602       -3.6576339906       -2.7338938750
 C         4.2057668712       -4.4518000817       -3.7922003859
 C         4.5142613913       -4.3080229447       -5.3516320279
 C         3.2342460516       -3.5149568131       -6.0164914053
 C         1.8614311055       -4.0754229622       -5.8707330110
 O         3.4267704822       -5.2732861372       -3.3647756702
 O         3.3594066639       -2.3924770483       -6.4374612570
 C         5.7640376188       -3.4814181207       -5.5459339947
 C         4.5244768634       -5.6727923934       -6.0003983682
 C         0.7552198330       -3.1193562014       -6.1896080331
 C         0.4930712050       -2.0299682733       -5.0971347180
 C        -0.1240000938       -0.6467534837       -5.4900191451
 C        -0.0475250373        0.3061877896       -4.2584104425
 C         1.1344797723        1.2893463598       -4.1475168726
 C         0.4215094905       -0.1851232548       -6.8248042590
 C        -1.6128127649       -0.9267349661       -5.6986733100
 O         0.7519234867       -2.3221519497       -3.9508440626
 O        -0.9910715457        0.2928737805       -3.5505199654
 C         0.8640494536        2.5598632771       -3.2378928747
 C         0.9205641026        2.3417427840       -1.6820820150
 C         1.2318713491        3.4171569828       -0.6876950575
 C         0.0476809011        4.4716270621       -0.7690747084
 C         0.2841721717        5.6977339212        0.1846777627
 O         0.6524740359        1.2308445404       -1.2053657827
 O        -0.9850415711        4.3152597300       -1.3498976843
 C         1.2695827179        2.7257128441        0.7062534101
 C         2.5762769622        4.1248466110       -1.0133309036
 H         0.1197031847       10.8050133954        5.7554636541
 H         0.6088719512       10.4646002759        4.1614136819
 H        -1.1581105325       10.6726886635        4.5171950436
 H        -1.0345907301        5.7631055580        4.8873570468
 H        -1.7200472312        5.0437966727        6.3347123066
 H         1.2922775194        7.6440937169        6.9269355495
 H         0.3462634942        6.3265331406        6.1626088594
 H         0.3447521787        6.6086024504        7.8980519014
 H        -2.3394615893        9.3995115593        7.3519273615
 H        -1.3571904589        8.5470937453        8.4572680522
 H        -0.6297340767        9.8558893216        7.2857382010
 H        -4.0781156670        5.9855089530        5.0520609648
 H        -3.1699601985        5.8016133328        3.6358596883
 H        -2.6343798660        1.3101637530        3.0650580596
 H        -4.2026846606        0.6721226062        3.0376100378
 H        -5.4240297645        2.7560626906        5.6359438113
 H        -4.4373128284        1.4482222232        4.8874857050
 H        -6.1717567219        1.8686442996        4.2047635528
 H        -6.6842121397        3.8435404991        2.9503358444
 H        -6.4005314424        4.5682636171        4.5342109778
 H        -5.6309829297        5.2230324411        3.0091463729
 H        -2.2711486343        0.5261474586        0.9502689607
 H        -3.2968586193        1.5620175655        0.2669959556
 H        -3.5960497913       -3.5425531280       -1.1818044551
 H        -1.7145016930       -3.8063939503       -1.1530293001
 H        -5.1257864556       -2.4442889976       -1.9062333564
 H        -5.9535880090       -1.2716350771       -1.0927758416
 H        -5.2460019351       -2.7413610505       -0.2285605249
 H        -3.7551365228       -0.4792413196       -2.8416426771
 H        -4.7366610968        0.6324077710       -1.6346697110
 H        -3.0181157296        0.6750017707       -1.5351608481
 H        -1.8300933479       -3.6318763286        1.3950161182
 H        -3.5429127825       -3.3524649115        1.3047986677
 H         0.5584338993       -6.2346235093        1.2698233517
 H        -0.3138052416       -5.2906411314        0.3297472422
 H        -2.8438479010       -6.2004081394        4.3830279255
 H        -4.1194300001       -5.5918393060        3.4009597554
 H        -2.7565045982       -4.6249353512        3.7529070779
 H        -2.7392227845       -8.1775258764        1.5597882872
 H        -1.0322354807       -7.8443222877        1.7482683452
 H        -2.1078548389       -8.0903213971        3.1634079976
 H         2.2293976477       -4.8586384494        1.4611187061
 H         1.2272500584       -3.8104627774        2.4354602690
 H         5.0450745580       -3.7447860767       -0.5363262313
 H         3.7705568951       -4.4807869982       -1.3630453293
 H         2.3974605757       -0.2728689779       -0.0699659354
 H         3.5339476050       -0.5176666991        1.1453015065
 H         1.7875818244       -0.8105578550        1.4919887113
 H         4.9050419275       -2.5829607482        1.3552503810
 H         3.6627686164       -2.9036562341        2.3796606760
 H         4.0437974273       -4.0589920552        1.3098996263
 H         5.3850201860       -2.6174438778       -3.1860664827
 H         5.9899375641       -4.2355088715       -2.5368105226
 H         1.8044174459       -4.9760322159       -6.4959116385
 H         1.8500557531       -4.5491261133       -4.8269109153
 H         5.7530065670       -2.4429815995       -5.1577499960
 H         6.0096204347       -3.3736127647       -6.6043774702
 H         6.6798893600       -3.9143422501       -5.1028484836
 H         4.7279084198       -5.5611505097       -7.0817592470
 H         5.1525727865       -6.4426201485       -5.5721092049
 H         3.4907556694       -6.1078024337       -5.8963649529
 H        -0.2567012689       -3.6255496327       -6.2711411950
 H         0.8192412812       -2.7320443777       -7.1864898907
 H         2.0378614625        0.8356240269       -3.9635365238
 H         1.2455220816        1.6301342647       -5.2035076146
 H         1.5441741746       -0.0052480733       -6.8375271732
 H        -0.0135722916        0.7503848018       -7.1720691000
 H         0.2628115795       -0.8797181454       -7.7465207789
 H        -2.0955884227       -0.0013564569       -5.9747653095
 H        -1.8291983984       -1.6447212365       -6.4875840110
 H        -2.3078873854       -1.3831454871       -4.8728461231
 H         1.7913828067        3.1725372449       -3.4116441081
 H        -0.0094180196        3.1223877482       -3.4900272036
 H         1.3271811411        5.7291549893        0.5406854296
 H         0.1100168532        6.6350823705       -0.2478752601
 H        -0.4040526288        5.6602901092        0.9774705600
 H         1.6072873226        3.3698299264        1.5341717710
 H         1.9717488709        1.9163087973        0.6517262648
 H         0.3689443190        2.2688323999        0.9983584547
 H         2.9914861744        4.5068434974       -0.1025290943
 H         3.1711827526        3.3411767276       -1.4806309651
 H         2.5425689010        5.0001125262       -1.7484503322
 Na        0.8519373272       -1.2349944767       -1.9534337715
