155

 C        -1.0192096131        9.8472106076        4.5326369526
 C        -0.7463551967        8.3938522038        4.9335179386
 C        -1.0955815635        7.9845832644        6.4346408083
 C        -2.4261255929        7.0944477854        6.2624493080
 C        -2.2016585900        5.8017966118        5.4704991305
 C         0.0177081265        6.8755072644        6.9444331702
 C        -1.3133339815        9.0844045281        7.4945664938
 O        -0.2991949757        7.5121568641        4.2066238213
 O        -3.4578988318        7.4995891299        6.7809196627
 C        -3.6890418541        5.4314152941        4.8936588681
 C        -3.6021518449        4.0530896306        4.3253607692
 C        -4.9565452280        3.3181040043        3.8048606284
 C        -4.3434442091        2.6377472588        2.4488159720
 C        -3.8679829295        1.1698988520        2.4923979074
 O        -2.5611380314        3.4478834130        4.4590342167
 O        -4.2953566694        3.2593032018        1.4234149463
 C        -5.5302889979        2.2413855311        4.8660797505
 C        -6.1445634124        4.2685485036        3.3650473377
 C        -3.4602524006        0.6346377095        1.0782689857
 C        -4.3245820887       -0.4662637465        0.4508758027
 C        -3.8147072881       -1.0140135797       -1.0760880309
 C        -2.6602876365       -1.8877141488       -0.7312187008
 C        -2.7694695475       -3.3747771428       -0.5477220790
 C        -4.8983740001       -1.8600303734       -1.6561774046
 C        -3.4634052843        0.1563148435       -2.0346986808
 O        -5.2331268734       -0.9550495161        1.0400474783
 O        -1.4849484975       -1.4399513695       -0.8037952826
 C        -3.1497113027       -3.9004630874        0.8310169937
 C        -3.0616091799       -5.3911069351        0.8481217080
 C        -2.1635552868       -5.9908339027        2.1154813562
 C        -0.8203318382       -5.2566588422        2.4509950451
 C         0.3703330450       -5.3256555699        1.4378809828
 O        -3.6475597957       -6.1758195757        0.0388013589
 O        -0.7356603096       -4.5756905757        3.4190620447
 C        -2.9780634834       -5.9659153259        3.4461036557
 C        -1.6566975723       -7.3500381531        1.5180718188
 C         1.6648238897       -4.4255102461        1.6448710269
 C         1.8416184438       -3.4193778014        0.5165811763
 C         3.0513856646       -2.5605646948        0.5015797493
 C         3.6541426039       -2.6140555706       -1.0302968576
 C         4.8112768785       -3.4856136131       -1.5229063960
 C         2.6185028142       -1.0154978687        0.7310911663
 C         4.0246693696       -2.8747362720        1.5804575291
 O         0.9145999481       -3.2030586994       -0.3474071405
 O         3.0935282583       -1.9212378082       -1.8121083023
 C         5.1749112907       -3.2641314392       -2.9509822240
 C         4.4761442680       -4.3087530264       -3.9018846755
 C         4.5588743097       -4.1231462179       -5.4085030342
 C         3.1114200959       -3.3898580375       -5.6346116893
 C         1.8990563677       -4.2971905566       -5.5660901389
 O         3.8173953793       -5.1971868084       -3.4171841599
 O         3.0883498048       -2.1807702477       -5.7243376278
 C         5.6776589473       -3.2394833430       -5.9006055741
 C         4.5418061709       -5.3908182712       -6.3511244453
 C         0.6841729824       -3.3755295189       -5.8894055185
 C         0.4565546213       -2.1726365999       -4.9079023507
 C        -0.0317377184       -0.8264809167       -5.4483911784
 C        -0.0573092070        0.2268114379       -4.2802283550
 C         1.0973817288        1.2288618616       -4.0631515076
 C         0.8476538947       -0.4224863452       -6.6895949500
 C        -1.4783798501       -0.9311840553       -5.8381465812
 O         0.7723583703       -2.4258301718       -3.7626368535
 O        -0.9389101878        0.2023246842       -3.4721712584
 C         0.6363348391        2.4194599337       -3.0840272739
 C         1.1114779811        2.2114105225       -1.6293634776
 C         1.4278979967        3.5045571270       -0.8755291194
 C         0.3234300818        4.6405840717       -0.9103979283
 C         0.5863130513        5.8049845874        0.1279278007
 O         1.0816553989        1.0612775940       -1.1116612354
 O        -0.7022824351        4.5331734317       -1.5779385839
 C         1.5475415318        3.0334350710        0.5958354318
 C         2.8339433958        4.0789982430       -1.4044501517
 H        -0.1369899061       10.5700030494        4.8727673537
 H        -1.0517336131       10.0757641824        3.4084804046
 H        -1.9255488777       10.2275014912        5.0336426720
 H        -1.5069767168        6.0231177408        4.6663994551
 H        -1.7985012344        5.0687150954        6.0527463342
 H         0.8572602721        7.2145987396        7.5272935182
 H         0.4404832362        6.3669149850        6.1230168615
 H        -0.3744221840        6.1155511727        7.5397996199
 H        -1.8054515329        9.9324346629        7.0740623219
 H        -1.8557149853        8.6034289540        8.3008740434
 H        -0.2985716284        9.3237265549        7.9125248981
 H        -4.4173851959        5.4902791418        5.6603595588
 H        -4.0448310977        6.1065469514        4.1494377791
 H        -2.9809594484        0.8984933929        3.1510141545
 H        -4.6324565010        0.5521270130        2.8657077817
 H        -5.9978818182        2.7590920129        5.6379919932
 H        -4.6715777802        1.8145513609        5.3633976959
 H        -6.1653165708        1.4759307722        4.3392135478
 H        -7.0152027980        3.6895274693        3.0621726413
 H        -6.4423717568        4.9847759927        4.1462010573
 H        -5.9673296892        4.7082046596        2.4086511451
 H        -2.4059233278        0.3554628584        0.9657197370
 H        -3.4791980415        1.5882908079        0.3451903319
 H        -3.5638220230       -3.8572954977       -1.2030215699
 H        -1.8106138997       -3.8409175833       -0.9629460702
 H        -4.6543543662       -2.3528887969       -2.5677506684
 H        -5.8211386003       -1.2081620682       -1.7870680026
 H        -5.2847357630       -2.6350089809       -0.9591771496
 H        -3.3252241000       -0.2732890902       -3.0960707101
 H        -4.2686302251        0.9434130474       -2.0464185642
 H        -2.5114757579        0.6505859701       -1.7978757226
 H        -2.4213069197       -3.5911645986        1.6707434345
 H        -4.1757208857       -3.6562158073        1.1169507736
 H         0.7029894139       -6.3702914349        1.3493439453
 H         0.0961463429       -5.0958489456        0.3943833239
 H        -2.3449346238       -5.8228354690        4.3326641522
 H        -3.7200439594       -6.7635064079        3.5719828837
 H        -3.6639362106       -5.1158934362        3.3380594104
 H        -2.4648621828       -8.0737832482        1.3662714452
 H        -1.2210792002       -7.2599307981        0.4976708434
 H        -0.9032048501       -7.7844690053        2.1944513425
 H         2.5621249508       -4.9517302735        1.5609185145
 H         1.8152639449       -3.8637148592        2.5701245141
 H         5.6484603113       -3.1358579420       -0.8459752835
 H         4.6120947756       -4.4953589000       -1.2093703369
 H         1.5979369259       -0.9161304337        1.0581876052
 H         2.5673876052       -0.4767537617       -0.1997955411
 H         3.4552249331       -0.5110598728        1.3010958592
 H         4.8591480925       -2.1668487875        1.6441159285
 H         3.7395170152       -2.7188646391        2.6341853371
 H         4.3836467243       -3.9337143894        1.6608218535
 H         5.0195551451       -2.1612322187       -3.3585656683
 H         6.1895627578       -3.3908583558       -3.1000134538
 H         1.9802788615       -5.0762119200       -6.3171698348
 H         1.9339078419       -4.8681871473       -4.5996806667
 H         5.6215705681       -2.1327874117       -5.7545204000
 H         5.7494985174       -3.1561260319       -6.9308230781
 H         6.6322598760       -3.5104866886       -5.4434585926
 H         4.1729309688       -5.0904224019       -7.3446790242
 H         5.4578661869       -5.8538481786       -6.6081468066
 H         3.9264910668       -6.2088727236       -5.8200893542
 H        -0.2173476413       -4.0643127064       -5.9618792002
 H         0.7062579437       -2.9553092461       -6.8655301997
 H         1.9969157925        0.6926647537       -3.8314882288
 H         1.4070917463        1.5671287701       -5.0938767193
 H         1.9773411499       -0.2844556099       -6.5295634019
 H         0.5951040786        0.5378709204       -7.1148651458
 H         0.8229837335       -1.1638514624       -7.4875471370
 H        -1.8996779254       -0.0930315978       -6.2444373378
 H        -1.8013391876       -1.6107698294       -6.5674598076
 H        -2.0548068008       -1.2167906380       -4.9282788986
 H         1.2560676024        3.2627515047       -3.4529999464
 H        -0.3868346391        2.6927951501       -3.0814841237
 H         1.6195459268        5.9467151343        0.5644703140
 H         0.2904737761        6.7469107758       -0.2793109449
 H        -0.1351135060        5.7107880427        0.8921665704
 H         1.8202013111        3.7810080148        1.2924668027
 H         2.3570410732        2.3365756835        0.7480687939
 H         0.6743865389        2.5494931600        0.8714247825
 H         3.0495650340        4.9795900353       -0.8705382275
 H         3.6703970473        3.4182506526       -1.1361037625
 H         2.7465286474        4.3667583715       -2.4960040718
 Na        0.6186408586       -1.2220301251       -1.7079032737
