155

 C         3.8414940959       -1.1095969671       10.6860573095
 C         4.5684125100        0.2270626215       10.3141812958
 C         5.9052830493        0.3290395376        9.4936856850
 C         5.6790406620       -0.2827155983        8.0119763901
 C         4.4445618104        0.2477044526        7.1391468151
 C         6.3372598070        1.7621451074        9.3504096318
 C         7.0981462075       -0.5016790314       10.0581407268
 O         3.9632775952        1.2456454830       10.5023640122
 O         6.5317055846       -1.0219073783        7.6211370534
 C         4.3142603072       -0.5206566722        5.8253372586
 C         3.7005561146        0.2855591976        4.6718268398
 C         3.1802353162       -0.5935451291        3.4449447785
 C         1.7946221814       -1.1997914507        4.0073093064
 C         1.1916905752       -2.4341973523        3.2899950072
 O         3.5885804431        1.4884019936        4.7853212555
 O         1.0233710462       -0.5753930244        4.7424048517
 C         2.9429322006        0.3275361048        2.2338129100
 C         4.1919128685       -1.7262678828        3.0064616072
 C        -0.3016250065       -2.5734534763        3.6711635864
 C        -1.2771993879       -2.4739032820        2.5415503614
 C        -2.8588408951       -2.6199357180        2.8133133242
 C        -3.3673696554       -1.2017101489        2.8767057499
 C        -4.4500681773       -0.8182799478        3.8343497398
 C        -3.5702815449       -3.2760914401        1.6118353820
 C        -3.2532188341       -3.4058361689        4.0604376286
 O        -0.8969727794       -2.4626077233        1.3815525352
 O        -3.0000632333       -0.3706769947        2.0295957277
 C        -4.5393606870        0.6592529485        4.1530931434
 C        -3.4860385593        1.1602805405        5.1690125119
 C        -3.2447653141        2.6950056422        5.3337141562
 C        -2.8667112765        3.0943558696        3.8218338015
 C        -1.2896324096        3.2970705898        3.4458026001
 O        -2.9003117359        0.2603145308        5.7149611598
 O        -3.7303403661        3.4107910191        3.0590206580
 C        -4.5645289114        3.3441849644        5.8233593378
 C        -2.1401547892        3.1173740095        6.2373533120
 C        -1.0471162880        3.6561756737        2.0077064408
 C        -0.6847538664        2.4952853545        1.1922778824
 C         0.0302727331        2.7211874107       -0.0989375156
 C         0.1193793245        1.3919743825       -0.8610071116
 C        -0.2247946661        1.1535309830       -2.3527413523
 C        -0.4856713838        3.8836079636       -1.0772087705
 C         1.4673905096        3.0322696268        0.2799448334
 O        -1.0319850059        1.3795545855        1.5324180451
 O         0.6616080691        0.4805007706       -0.2342471561
 C        -0.3875546724       -0.3584925531       -2.7073621505
 C        -1.9042465424       -0.8333622206       -2.8082540707
 C        -2.6323913666       -0.8282706198       -4.2120911194
 C        -1.8658033640       -2.0439137622       -4.9748181862
 C        -2.5479188633       -2.8359383294       -6.0691355487
 O        -2.3762512466       -1.4378090107       -1.8150391515
 O        -0.6801149443       -2.2161927543       -4.8525363347
 C        -4.1620359818       -0.8084202387       -3.9547355801
 C        -2.3905127967        0.4767608938       -4.9164075686
 C        -3.9354049221       -2.4306774189       -6.6282708804
 C        -4.1039723806       -2.5975389773       -8.2961475630
 C        -4.3348740503       -1.1757430054       -9.2815855903
 C        -2.9820377441       -0.3764809204       -9.0308210078
 C        -1.6514722243       -0.7421394708       -9.8637456608
 C        -4.5757769074       -1.6241724076      -10.7312864360
 C        -5.5466768389       -0.4558687175       -8.6856459763
 O        -4.0571661680       -3.6586417967       -8.8295621454
 O        -2.9095854725        0.4635102932       -8.1521091903
 C        -0.4710198001       -0.5386036842       -8.9586308545
 C         0.7356115240        0.0276046166       -9.7237789203
 C         2.1526052396        0.5077532135       -8.8635863759
 C         1.7355956361        1.7113383053       -7.9517277809
 C         2.3807214774        3.1142997410       -7.9920511356
 O         0.6725712701        0.2777022345      -10.8569037989
 O         0.7243498787        1.5643358966       -7.2653689293
 C         2.6612734026       -0.6656553822       -8.0057060777
 C         3.1940556702        0.8632432199       -9.9826396434
 H         3.0320907655       -1.2577281736        9.8855309342
 H         4.5319740273       -1.9637434195       10.5979533909
 H         3.3634333403       -1.1380399981       11.6506114825
 H         3.5942496048        0.2355615892        7.7790202987
 H         4.7318574176        1.2838480929        6.8035931626
 H         6.4085230584        2.3018756095       10.2955032331
 H         5.6235716812        2.2558399969        8.7376505339
 H         7.2217360172        1.8267426465        8.7944779702
 H         6.9041262568       -1.6832541286       10.1757466442
 H         8.0220142548       -0.3416862956        9.4774920092
 H         7.4045371803       -0.2650825913       11.0500479536
 H         5.2641407171       -0.8553771651        5.4122974690
 H         3.6994260008       -1.4309974542        6.0810049942
 H         1.3865950021       -2.3103179886        2.2580953760
 H         1.7030835844       -3.3849002893        3.5998418232
 H         2.4955842478        1.2441440018        2.5790445760
 H         2.2871122097       -0.1605421596        1.5692610481
 H         3.9842840045        0.3885806845        1.8114523180
 H         4.0051341194       -2.5866258719        3.6722356535
 H         3.8285660606       -2.0249824189        2.0301848976
 H         5.2403956747       -1.4519562460        3.1103058052
 H        -0.5516931299       -1.9111013870        4.4561633747
 H        -0.5521744418       -3.5721233093        4.0145058646
 H        -5.4145103626       -1.2393068002        3.4267170242
 H        -4.3831712402       -1.3019995192        4.8466485186
 H        -3.3500193001       -2.7091169514        0.7068242369
 H        -4.6582549654       -3.1525453565        1.6107504673
 H        -3.4544447172       -4.3091628057        1.5539039447
 H        -2.8446805981       -4.4445771983        3.9955405550
 H        -2.9207635128       -2.9511297017        5.0302502367
 H        -4.3671152725       -3.3179818044        4.1099390061
 H        -4.4339473813        1.1542117494        3.1871162747
 H        -5.4961612663        0.9136788090        4.6198312708
 H        -1.0508049361        4.1700245847        4.1017445701
 H        -0.6505241426        2.4437645233        3.7629980546
 H        -4.9607277698        2.7162287424        6.6679791874
 H        -5.3894695044        3.1588511190        5.1168963323
 H        -4.3419457965        4.3477240307        6.0449234609
 H        -1.5338021451        3.8844733262        5.7836333643
 H        -2.4743403375        3.3955298778        7.2244136949
 H        -1.3425156578        2.3988636209        6.2116042275
 H        -0.2349976249        4.3373293225        1.9932561677
 H        -1.9320501286        4.2746494746        1.6998563683
 H        -1.0209980507        1.8486474773       -2.6953723979
 H         0.6731741223        1.5162511831       -2.8351277302
 H        -0.6656104409        4.7402927222       -0.5216845815
 H        -1.3677874036        3.6141194079       -1.6480726995
 H         0.2644647336        4.0864747886       -1.8275064980
 H         1.6580018873        3.8586015336        0.9157656071
 H         1.8494443077        2.2470192692        0.8410650755
 H         2.1220589311        3.1205792274       -0.6140649661
 H         0.2510973149       -0.6225646223       -3.5703450757
 H        -0.0227069872       -0.9868875371       -1.8366781028
 H        -1.7458200228       -2.8660088832       -6.8308279670
 H        -2.5577221280       -3.8158097479       -5.7088087407
 H        -4.6390145455       -0.3928693022       -4.7702344197
 H        -4.3253290213       -0.1616852396       -3.0975939088
 H        -4.5437969672       -1.7940007644       -3.6280787786
 H        -2.7410359306        1.3474527345       -4.3173460372
 H        -1.2964302597        0.5005536195       -4.8511838176
 H        -2.7262106478        0.5511962497       -5.8890964580
 H        -4.2956023650       -1.3939972799       -6.3294770047
 H        -4.7032797689       -3.1688167511       -6.3511501187
 H        -1.6185833030       -1.8629649455       -9.9967845913
 H        -1.4291454683       -0.2335632820      -10.8079964432
 H        -5.5126760881       -1.2869606216      -11.0518583080
 H        -4.5002545109       -2.6575788229      -10.8112439482
 H        -3.7740127619       -1.1650443088      -11.2661362510
 H        -6.3194380080       -1.2007229297       -8.4858544827
 H        -5.2273951576       -0.1261270106       -7.7185522556
 H        -5.8594362364        0.3399858474       -9.3292187058
 H        -0.7153927287        0.2006140684       -8.2052979716
 H        -0.1919105060       -1.4970119520       -8.4501049925
 H         1.5995965864        3.7420086514       -8.4032098568
 H         2.6779425312        3.5414761468       -7.0064151517
 H         3.2583664305        3.2145723459       -8.6425425810
 H         2.7758999422       -1.5473491441       -8.5968183077
 H         2.0427257332       -0.8916805905       -7.1351984030
 H         3.6202945820       -0.2932223327       -7.6831340440
 H         3.3560014071        0.0489640828      -10.7134742492
 H         2.7861507576        1.6099213927      -10.6695789670
 H         4.2166987375        1.1703892117       -9.6625115804
 Na       -1.4937331086       -0.9597204733        0.0905400985
