155

 C        -1.3907110333        9.6419932173        4.4068611013
 C        -0.8690894771        8.2890944401        4.9317184279
 C        -1.1048521697        7.8524893722        6.4680981653
 C        -2.5584363989        7.0920723881        6.4373602724
 C        -2.6270671514        5.8261733082        5.4814996327
 C         0.0176895436        6.9386668598        6.9967024531
 C        -1.3228197543        9.0442580022        7.4597034197
 O        -0.1585021517        7.5461045268        4.2771336489
 O        -3.4955043230        7.5443683462        6.9956288515
 C        -3.9192742174        5.2750154401        5.0377647327
 C        -3.8156790899        3.9808808682        4.3100530141
 C        -5.0380348787        3.2949475684        3.7458396491
 C        -4.3355274381        2.5503810930        2.3928496308
 C        -4.0845748159        0.9924142961        2.3650293046
 O        -2.7507043374        3.3777630574        4.3204015873
 O        -4.1914058441        3.2591813907        1.3893049458
 C        -5.4027916351        2.2195138909        4.8517039742
 C        -6.1539987022        4.2386138336        3.2571710877
 C        -3.6067835053        0.5465319702        0.9643643871
 C        -4.4673175971       -0.4869717172        0.3109652291
 C        -3.8902626795       -0.9341196138       -1.1216343472
 C        -2.7045003726       -1.7937676471       -0.7416305981
 C        -2.7319703129       -3.2674065605       -0.6229639823
 C        -5.0515841205       -1.6224457644       -1.8393265306
 C        -3.5652208953        0.3052681136       -1.9339294865
 O        -5.5615928867       -0.8966029205        0.7521261828
 O        -1.6941609810       -1.2001472928       -0.4933077503
 C        -3.1322918587       -3.7457728271        0.7753878367
 C        -2.9299241080       -5.3335572671        0.9481699113
 C        -2.0432676305       -6.0599471193        2.0059066248
 C        -0.6839652601       -5.2349154888        2.2927354506
 C         0.5309382586       -5.4186537615        1.4146173886
 O        -3.6004582168       -5.9621659756        0.2524189685
 O        -0.7129195107       -4.2522947482        3.0594607859
 C        -2.8794756031       -6.3020916238        3.2913428666
 C        -1.6681709463       -7.4408616648        1.4765526775
 C         1.6396444648       -4.4548888017        1.6542306973
 C         1.7690274393       -3.3707354665        0.5685655629
 C         3.0709006891       -2.5551316416        0.5496818765
 C         3.5589821013       -2.5757212940       -0.9319728133
 C         4.9336175604       -3.2253585314       -1.3794327393
 C         2.8384264772       -1.0899912189        1.0094663493
 C         4.2112334079       -3.1133350217        1.4216244568
 O         0.8779709857       -3.2283970778       -0.1896222843
 O         2.9543684587       -1.9663509815       -1.8432645407
 C         5.1908660145       -3.1273374050       -2.9101052463
 C         4.5944563714       -4.2120780076       -3.8474309655
 C         4.4576975527       -3.9785018424       -5.3876531811
 C         3.0863452940       -3.2756135239       -5.5599550833
 C         1.8106820957       -4.2139195615       -5.6062988687
 O         4.2270950583       -5.2866012773       -3.4119746979
 O         2.9235331623       -2.1020340566       -5.3258020922
 C         5.5380777915       -3.0149776556       -5.9057536235
 C         4.5952760673       -5.3534644038       -6.0931584852
 C         0.5399604962       -3.4832382819       -5.8114853378
 C         0.4794667737       -2.3040116721       -4.8950640381
 C         0.1101715685       -0.8671596587       -5.4597966638
 C         0.0820828177        0.1361764438       -4.2323179940
 C         1.0642981283        1.3283421767       -4.0367230960
 C         0.9483216589       -0.2647017840       -6.6044919549
 C        -1.2819482914       -1.0319534260       -5.9562126615
 O         0.6261577379       -2.4789528371       -3.7023439977
 O        -0.8735305931        0.0851442999       -3.4685569668
 C         0.6231331687        2.3254757994       -3.0438656063
 C         1.0876785465        2.1553870576       -1.6031318921
 C         1.5374578712        3.4641818503       -0.7640635834
 C         0.4481023660        4.5727493122       -0.9508739126
 C         0.5216969711        5.8468840013       -0.1408723562
 O         1.3977732298        1.0682373871       -1.1695494126
 O        -0.2515556918        4.4651263538       -1.9271597127
 C         1.9460609392        3.1551188633        0.6632017957
 C         2.7949585855        3.9944796528       -1.4796781256
 H        -0.7087735553       10.3826066598        4.6248228299
 H        -1.4535224518        9.6377312408        3.3418800692
 H        -2.3360320739        9.9810138038        4.8458461184
 H        -2.0392913109        6.0300599835        4.5644893787
 H        -2.1420307633        4.8613417571        5.9783579122
 H         0.9655314743        7.5471942471        7.0771719988
 H         0.3843155119        6.1035757732        6.3364585674
 H        -0.2088890162        6.4325610255        8.0193082398
 H        -2.2880651247        9.4535792680        7.1151984083
 H        -1.1885232814        8.7176568516        8.5033935105
 H        -0.5697637273        9.7917970045        7.3583968334
 H        -4.5405327633        5.0272380754        5.9982535363
 H        -4.5606334519        6.0222822139        4.4521686378
 H        -3.3664065992        0.6466113334        3.0836827312
 H        -5.0399677620        0.3689731955        2.5788139807
 H        -5.6917384714        2.7844787115        5.8303272317
 H        -4.5040842633        1.5487430826        5.0694844988
 H        -6.2378909420        1.6724488607        4.4490883537
 H        -7.0113136190        3.7741267202        2.7874951868
 H        -6.5026160748        4.8545733477        4.0769811800
 H        -5.7673966231        4.8822390236        2.4348772681
 H        -2.5870636667        0.0702757553        1.0525226678
 H        -3.4578155857        1.3568995955        0.3187779517
 H        -3.3426167693       -3.8376345182       -1.2932666603
 H        -1.7403997253       -3.5954340934       -0.8740121517
 H        -4.6690130920       -2.3635758775       -2.5471419199
 H        -5.6742609112       -0.9188098808       -2.3021119566
 H        -5.7482522690       -2.1135855062       -1.2132478838
 H        -3.0648520129        0.1206352317       -2.8790331822
 H        -4.5288128151        0.8205699705       -2.1271529637
 H        -2.8804389287        0.9967803997       -1.3902551698
 H        -2.5783716462       -3.2469774109        1.5048807091
 H        -4.2324647307       -3.6119686463        0.9545476215
 H         0.9663938162       -6.4318937769        1.4503393465
 H         0.1827267059       -5.2000626235        0.4144444915
 H        -2.0953131249       -6.5516198870        3.9811485424
 H        -3.4695445254       -7.1867333357        3.1328963651
 H        -3.5725131967       -5.5984548541        3.6849830753
 H        -2.4397166072       -8.1497427103        1.5947367955
 H        -1.4905433883       -7.4597639960        0.4019338667
 H        -0.7594611503       -7.7631127015        2.0267767734
 H         2.6755507030       -4.8450717101        1.9129438804
 H         1.4391116405       -3.9017792340        2.5745050074
 H         5.7154459909       -2.7530410400       -0.8440553839
 H         4.8330370824       -4.2459031884       -0.9656225435
 H         2.6138872994       -1.0972141874        2.0556594103
 H         1.8997543300       -0.6748522964        0.6326986859
 H         3.6471306186       -0.5757098079        0.6511257828
 H         5.1000612309       -2.4766338793        1.4163085074
 H         4.0982242693       -3.2171545793        2.5216468945
 H         4.5357077065       -4.0824458400        1.1249175600
 H         5.0469283457       -2.1967069601       -3.3259129618
 H         6.3414746142       -3.2635721125       -3.1628225931
 H         1.9575859088       -4.9023006659       -6.4865561823
 H         1.8970651557       -4.8580831951       -4.7224934551
 H         5.2799590117       -2.0165037372       -5.6870797410
 H         5.6184469613       -2.8707262644       -7.0185272596
 H         6.5449944862       -3.1133791546       -5.5390603442
 H         4.4201832884       -5.2938951144       -7.1575128248
 H         5.6902438521       -5.6664805620       -6.1017541042
 H         4.0517602401       -6.0884145981       -5.6068887305
 H        -0.3168878472       -4.1169405459       -5.6705016781
 H         0.4274870795       -2.9919782535       -6.8324539887
 H         1.9940807759        0.8343087492       -3.7565826357
 H         1.3097983663        1.6959951662       -5.0174715283
 H         1.9194157648        0.0356291362       -6.3072066708
 H         0.5387114797        0.6597651586       -7.0300181212
 H         1.1833154532       -0.9643428715       -7.4601212880
 H        -1.8070877784       -0.1411204119       -6.4220574036
 H        -1.3327163974       -1.6144053138       -6.9104942522
 H        -2.0341931692       -1.4827460031       -5.2999977339
 H         0.7741720227        3.3126740898       -3.4403274480
 H        -0.4915316055        2.1609353970       -2.8814155459
 H         1.5633339089        5.9810989279       -0.1432227301
 H        -0.0112393687        6.7069481931       -0.5291692352
 H         0.2450565194        5.7986220452        0.9273406679
 H         2.3836874133        4.0411033308        1.1756878799
 H         2.7028844887        2.4327318808        0.7963724248
 H         1.0617905737        2.7922728264        1.2143559951
 H         3.3497205781        4.8011691550       -0.9405228836
 H         3.5382784547        3.2101673076       -1.5373279485
 H         2.4449650804        4.3686885423       -2.4097725327
 Na        0.7192403861       -1.3797769422       -1.6864526338
