155

 C        -2.6012705385        8.4156783912        4.1951875048
 C        -1.4671571497        8.0743618652        4.9889317236
 C        -1.6982792672        7.5449154227        6.5063262094
 C        -2.9502941287        6.7025956297        6.6084920386
 C        -2.7514208376        5.2106913881        6.0138747391
 C        -0.3959030904        6.9734906929        6.9652395429
 C        -1.9669631750        8.9739669689        7.2338908095
 O        -0.3326712456        8.1115565984        4.5614113842
 O        -4.0321565481        7.1487112993        6.9086828984
 C        -3.9435090566        4.8619712997        5.2988808039
 C        -4.0352088990        3.4816053466        4.5340635500
 C        -5.4985383004        3.2497986735        3.8107299841
 C        -5.0561549084        2.5781218464        2.3255027673
 C        -4.9976142993        1.0256176657        2.1668246719
 O        -3.1159448740        2.6865333793        4.5545493733
 O        -4.7793581775        3.2886204933        1.3833325232
 C        -6.3359137721        2.2446326770        4.6641647802
 C        -6.3264815391        4.5449910620        3.6177311345
 C        -4.1650437245        0.4877505445        1.0135556143
 C        -4.9161049459       -0.4737250664        0.1653776216
 C        -4.2460146102       -0.8237777254       -1.2025060338
 C        -2.7752721636       -1.1928856755       -0.8900820309
 C        -2.3936144309       -2.6695925135       -0.6971341511
 C        -4.9150593923       -1.9055371685       -2.0117146369
 C        -4.3043110713        0.4754551798       -2.1243150080
 O        -5.9854542881       -0.9909005404        0.5141316622
 O        -1.8516900472       -0.3963137094       -0.6842036887
 C        -2.9466456604       -3.2902476959        0.5582468015
 C        -2.5911602282       -4.8090166525        0.3670220832
 C        -2.0343546451       -5.6196319285        1.5642346019
 C        -0.5280038172       -5.0305842360        1.5202631204
 C         0.6319136738       -5.5371159893        0.6022272658
 O        -2.7918551586       -5.4446828070       -0.6129266640
 O        -0.3230865369       -4.0856324259        2.2290313491
 C        -2.6759590851       -5.3657246520        3.0120347613
 C        -1.9473644194       -7.1764139550        1.2765127906
 C         1.9339982670       -4.7721351468        0.8563632024
 C         1.8409835383       -3.3085755415        0.3973633910
 C         3.1361324285       -2.4861327750        0.6219166351
 C         3.6255205674       -2.2237415865       -0.8035770259
 C         5.1490206449       -2.2443349244       -1.1507040353
 C         3.0531240941       -1.0965901923        1.2651292189
 C         4.1463989688       -3.3544896671        1.5045658025
 O         0.8003808218       -2.8743356004       -0.1244339973
 O         2.8571075864       -1.7925682285       -1.5848321258
 C         5.3135573735       -2.2051981328       -2.6886693363
 C         5.2865655331       -3.6054222168       -3.3990856053
 C         4.6341790506       -3.7094893481       -4.9143520098
 C         3.1826581569       -3.2819022738       -4.9016639059
 C         2.1133482644       -4.4598604299       -5.0505861432
 O         5.7836639759       -4.5683919545       -2.8997924200
 O         2.8633809056       -2.0804658674       -4.9630147652
 C         5.5171030178       -2.7864752634       -5.7514473217
 C         4.8425146010       -5.2004239280       -5.3928471232
 C         0.8709113536       -3.7736418673       -5.4611554075
 C         0.5657551965       -2.5395963584       -4.6054329034
 C         0.0414530193       -1.2125052153       -5.2843818258
 C         0.2168503055       -0.1931902567       -4.1104235419
 C         1.6413085983        0.4655784524       -3.9125130872
 C         0.8122133645       -0.9067264806       -6.6075931693
 C        -1.5513164255       -1.1158242473       -5.4867035763
 O         0.5518328366       -2.6948762063       -3.3635359003
 O        -0.6798933782        0.0233715924       -3.3236711036
 C         1.4654646439        1.8930303063       -3.2881639500
 C         1.8049063608        1.8940937334       -1.8058905138
 C         2.2681770383        3.1402607505       -1.0803888360
 C         1.1268707590        4.2321130081       -1.0770904449
 C         1.0503884988        5.3837286586       -0.1836293473
 O         1.4868648970        0.9672272421       -1.1249613035
 O         0.3062233863        4.0613280981       -1.9650277990
 C         2.5987316545        2.6910905776        0.4169708757
 C         3.4680774119        3.6830146628       -1.7867039047
 H        -3.3351324499        8.9436639912        4.6667036485
 H        -2.3446338445        8.9528246784        3.3149032351
 H        -3.0927311905        7.5115477574        3.8667204184
 H        -1.9259995554        5.2437218385        5.2125023606
 H        -2.3790388612        4.3470462947        6.6581037190
 H         0.3985800135        7.5696592234        6.4892872135
 H        -0.2669915618        5.8944330868        6.7076445677
 H        -0.0947344307        7.1629536149        8.0578995639
 H        -3.0187141126        9.1844625911        7.4806055449
 H        -1.5066464795        9.0795804623        8.2105944313
 H        -1.6480365565        9.7666093968        6.5468397968
 H        -4.8221701445        4.9640678854        6.0419155742
 H        -4.1427854872        5.7243613482        4.5620941228
 H        -4.4967043363        0.7899067707        3.1735506721
 H        -5.9857289342        0.5650159051        2.1104966673
 H        -6.9376473498        2.6840321427        5.5208798282
 H        -5.7342836049        1.5161801340        5.2355382053
 H        -6.9915651686        1.6535580213        4.0225757282
 H        -7.2329445692        4.2401349313        3.0510494784
 H        -6.5668951004        4.9684066197        4.5756642893
 H        -5.8337385849        5.3494036052        3.0576858340
 H        -3.4087622754        0.0007160609        1.5178916861
 H        -3.8565109683        1.3112201382        0.4142675729
 H        -2.8472641134       -3.2744056910       -1.4947827085
 H        -1.3739329155       -2.7959665356       -0.6580778628
 H        -4.5291395479       -1.9596006713       -3.0682347952
 H        -5.8868643752       -1.5728419105       -2.1720302999
 H        -4.9283585269       -2.8401515912       -1.5126465418
 H        -3.3382698552        0.6941609147       -2.5689759453
 H        -5.0504330991        0.4570612955       -2.9380113030
 H        -4.6616237438        1.4485304181       -1.7230656570
 H        -2.5311933378       -2.8879840620        1.5044333193
 H        -3.9862619300       -3.1310910375        0.6797700518
 H         0.8065539167       -6.5774773009        0.7047856253
 H         0.2425826421       -5.3483615948       -0.4728811071
 H        -3.1917936469       -4.4605653502        2.9589058895
 H        -1.9536539534       -5.2353856502        3.7898451173
 H        -3.3234399232       -6.2292723498        3.2071415694
 H        -2.9704402884       -7.3697139941        0.8724463997
 H        -1.1684825289       -7.3812747635        0.5414881590
 H        -1.8656441431       -7.7416854825        2.2017397304
 H         2.7562110379       -5.1313921190        0.2148510985
 H         2.2877087706       -4.8509924800        1.8735082700
 H         5.4108846485       -1.2198588497       -0.8432077859
 H         5.7272692251       -3.0206220540       -0.7168891210
 H         3.5210604641       -1.2234363282        2.2199504397
 H         2.0614791663       -0.6790527321        1.1892103168
 H         3.7264281156       -0.4101762614        0.8148103026
 H         5.0072813942       -2.7494445945        1.6957985106
 H         3.7147753421       -3.4773467475        2.4780797458
 H         4.3323302166       -4.3484745284        1.1275397270
 H         4.7210419131       -1.5849945147       -3.2589712780
 H         6.4036709330       -1.9167643397       -2.8932155308
 H         2.4150256046       -5.2406834272       -5.7611351187
 H         2.0502319203       -4.7761115047       -4.0005735848
 H         5.4792120292       -1.7494572310       -5.4244748152
 H         5.1937960388       -2.6438936565       -6.7921859741
 H         6.5710725942       -3.0236448341       -5.7024348602
 H         4.3389442975       -5.2861859072       -6.3520316485
 H         5.9612085147       -5.3867903014       -5.4008985099
 H         4.4132051872       -5.9117756770       -4.7274329391
 H        -0.0598968524       -4.3492760411       -5.2955067810
 H         0.8293482812       -3.4528637354       -6.5478062681
 H         2.1943954169       -0.2141642634       -3.1286659173
 H         2.0808749177        0.5858343536       -4.8892208225
 H         1.8583212000       -0.8825153987       -6.4269292286
 H         0.4867449342        0.0822296905       -7.0480326953
 H         0.5932817167       -1.6706621480       -7.3815545250
 H        -1.8532830129       -0.1011000404       -5.8607160874
 H        -2.0942236953       -1.8140780630       -6.1596150521
 H        -2.1772667458       -1.2540420739       -4.5823899424
 H         2.1169149968        2.5776908802       -3.8742071681
 H         0.4735618789        2.3334730811       -3.4340657349
 H         1.8801268900        6.0187239177       -0.1226396324
 H         0.1600329037        5.9765707085       -0.4020208145
 H         0.9810598689        4.8869962298        0.7689499464
 H         3.1278731193        3.4308427619        0.9737899284
 H         3.2434246665        1.8452488577        0.3762449356
 H         1.6901081320        2.4227513589        0.9304642225
 H         3.8415081706        4.5268856654       -1.1573899751
 H         4.2725331452        2.9370921082       -2.0542801590
 H         3.2292358121        4.0492367890       -2.7565468627
 Na        0.4754283937       -1.0644722586       -1.5523252598
