155

 C        -3.1031864139        8.5317053052        4.5176416757
 C        -2.5333983392        7.1036267307        4.9253316789
 C        -3.0713820774        6.4624037795        6.2771513353
 C        -4.4956841952        5.8627228482        5.9153961762
 C        -4.6188566857        4.3526987034        5.8327591996
 C        -1.9570911973        5.3973600546        6.6501547101
 C        -3.1854578582        7.6147533606        7.3295692066
 O        -1.6439833275        6.5077016348        4.3514189613
 O        -5.3814003932        6.6646582076        5.5602168191
 C        -6.0548408885        3.8620093897        5.3055705464
 C        -5.9126880369        2.2775331531        5.1240684889
 C        -6.7987923731        1.5796022421        3.8878211819
 C        -6.0369561638        1.9312717501        2.5640232736
 C        -4.4357387559        1.8110400823        2.5419728325
 O        -5.1734767426        1.6349872272        5.7997077549
 O        -6.6102229789        2.1906709768        1.5546110212
 C        -6.8861072080        0.1181677794        4.2282088348
 C        -8.3008337551        2.1032096392        3.8448039617
 C        -3.9007795681        1.9737401580        1.0931485117
 C        -3.2674726005        0.6153992079        0.6006987152
 C        -3.0748728518        0.3797888046       -0.9902122350
 C        -1.8900216888       -0.5593331073       -1.1883649176
 C        -1.9639482493       -2.0976766534       -1.4618642890
 C        -4.3797901691       -0.3737698105       -1.6271936449
 C        -2.6629015088        1.6886907225       -1.6791226380
 O        -2.9131025946       -0.2313323571        1.3727582978
 O        -0.7363743642       -0.0977984307       -1.0881900302
 C        -2.5065609433       -2.8246972101       -0.1549579947
 C        -2.5920078749       -4.3649646973       -0.2013788291
 C        -2.0618785686       -5.2207707988        1.0727621805
 C        -0.6165306494       -4.8089026681        1.4425834665
 C         0.5127127285       -5.6382092339        0.7020371053
 O        -3.0989080035       -4.9431268298       -1.1302936812
 O        -0.4044746802       -3.7805149744        2.0071082862
 C        -2.9962548338       -4.8980322428        2.1588111451
 C        -2.1852232962       -6.6898986452        0.7493855611
 C         1.8139453196       -4.8837801290        0.6267598740
 C         1.7047077569       -3.2724311544        0.4556722523
 C         2.6574374509       -2.2734911208        1.2389654509
 C         3.7250926585       -2.2396489215        0.1094442940
 C         5.2261898995       -2.8524077209        0.2644928221
 C         1.8901511508       -1.0109480549        1.5953250559
 C         3.2386517182       -2.8750301814        2.5463782362
 O         1.0762301484       -2.7724789912       -0.4732584203
 O         3.5218832305       -1.4073864333       -0.7381988232
 C         6.1366482404       -3.0969061080       -0.9507897457
 C         5.5855440798       -3.9583867168       -2.0325316804
 C         5.6189266778       -3.7689317261       -3.6299463696
 C         4.3835107846       -3.1133623668       -4.1180533906
 C         3.0143981323       -3.8205810791       -3.9854258311
 O         4.9861481167       -4.9471179280       -1.5506262856
 O         4.4437578215       -2.0262361562       -4.6722783374
 C         6.7807276170       -2.7710064012       -3.8530029528
 C         5.9092347432       -5.1005226195       -4.2792249191
 C         2.0147644889       -3.4626088894       -5.0791082157
 C         1.0477879750       -2.3679540228       -4.6966008604
 C         0.7181644007       -1.1366990783       -5.6765333459
 C         0.6342365730        0.1815873895       -4.7333355509
 C         1.7053715138        1.2174057800       -4.9937646009
 C         1.7542291337       -1.0878995089       -6.8948035187
 C        -0.6671205311       -1.4557199194       -6.2248254573
 O         0.4812915633       -2.3663493572       -3.5964725650
 O        -0.2589746431        0.3329140808       -3.9810451675
 C         1.5687278276        2.5086988544       -4.2140223978
 C         2.1644941652        2.4454901889       -2.7636199837
 C         2.3772608055        3.7793358668       -1.9323295707
 C         1.0591717278        4.7238882734       -1.9677380394
 C         1.0827526023        5.9477731208       -1.0833266225
 O         2.4903850865        1.2997969565       -2.3661802485
 O         0.1722265450        4.5670863979       -2.7670636018
 C         2.5939095366        3.3248008036       -0.3960339895
 C         3.6085922126        4.5267477060       -2.5044320873
 H        -2.7212903417        8.9646133080        3.5965080314
 H        -4.1176417359        8.4972707632        4.5078461110
 H        -2.9398362735        9.1387619629        5.3141738710
 H        -3.9712031629        4.0054186983        4.9863433490
 H        -4.2819184812        3.8594769476        6.8060358759
 H        -1.0176256749        5.8615049806        6.5196340466
 H        -2.0360971263        4.5370085850        5.9560160686
 H        -2.1105827524        5.0533335116        7.6500197683
 H        -4.2310500455        7.9358538618        7.4392726970
 H        -2.9688075844        7.2058741543        8.3380136699
 H        -2.5478799305        8.4256337762        7.0447061829
 H        -6.8937535516        4.2288708727        5.9554127196
 H        -6.2134066568        4.4023350668        4.3951050690
 H        -3.9799006855        2.4690928380        3.2972010701
 H        -4.3586639401        0.8268468325        2.9074876633
 H        -7.6659503751       -0.0109827018        4.9639087912
 H        -6.0131092982       -0.3030289214        4.7315968756
 H        -7.2517172823       -0.5159504091        3.2901190959
 H        -8.9093043071        1.3686811644        3.3288410373
 H        -8.6600774771        2.3236532948        4.8450583120
 H        -8.3655825794        3.0780683120        3.3346158314
 H        -3.0527274663        2.6028122399        1.1286888772
 H        -4.6404999918        2.2420403849        0.3689814357
 H        -2.4960239793       -2.5769279534       -2.2141176249
 H        -0.9225616119       -2.3274434693       -1.7380859758
 H        -4.1612707752       -0.5924997021       -2.6499770341
 H        -5.3621199813        0.1986795547       -1.6751399295
 H        -4.5393245405       -1.3510311161       -1.0918417021
 H        -1.9631634457        2.3725674693       -1.0564021041
 H        -2.2445291560        1.4286902692       -2.6839813507
 H        -3.6277025814        2.2292808465       -1.8985475684
 H        -1.9022338758       -2.5537868427        0.7259618377
 H        -3.5413558903       -2.4718397077        0.0347257700
 H         0.7130513499       -6.5468895693        1.2120809821
 H         0.1079331213       -5.9234335246       -0.2835667309
 H        -2.7176246621       -5.3294700404        3.1838119020
 H        -4.0331315929       -5.2764142948        1.9680938628
 H        -2.9586714047       -3.7712514147        2.2048188201
 H        -3.2658179477       -6.9071614837        0.4403126433
 H        -1.5146025345       -7.0496917016       -0.0278414943
 H        -2.0059608626       -7.3450263688        1.6246460720
 H         2.3948980442       -5.3496137256       -0.2284100953
 H         2.3625407582       -5.1528444014        1.5658204076
 H         5.6901092906       -2.0580649632        0.8652301021
 H         5.1744420381       -3.7838060561        0.7294004153
 H         2.3825018959       -0.2115472437        2.2203511469
 H         1.0400242507       -1.3071663508        2.2511432117
 H         1.4247972341       -0.4684218662        0.7499388812
 H         3.8801974997       -2.1886216201        3.0688805409
 H         2.5608155688       -3.1217316495        3.4134578173
 H         3.8160683475       -3.7799650196        2.3785317761
 H         6.5916898867       -2.0990819751       -1.3677495889
 H         7.0239151182       -3.5837079497       -0.6186408537
 H         3.2625097097       -4.8494058023       -4.1765326526
 H         2.6263377312       -3.8900056154       -2.9749928324
 H         6.5498102362       -1.9304282325       -3.2342527426
 H         6.7894521050       -2.2764096432       -4.8573570739
 H         7.7274554424       -3.2172368304       -3.5574835016
 H         6.1466732317       -4.9124825970       -5.3414327776
 H         6.7571664911       -5.5887861378       -3.8180345007
 H         5.0437301689       -5.8489071479       -4.4590604973
 H         1.4370201194       -4.2609905247       -5.4588375402
 H         2.5757161434       -3.2244688471       -6.0097000463
 H         2.6898147862        0.8120804633       -4.8271368639
 H         1.6280539936        1.4233471217       -6.0083336926
 H         2.6986378808       -0.8727245875       -6.4605092066
 H         1.4723606376       -0.2529414896       -7.6672312451
 H         1.8509302690       -2.0177392039       -7.4098702980
 H        -1.3374293242       -0.5791467013       -6.3862968117
 H        -0.6396928833       -2.1869643010       -7.0463476629
 H        -1.1828912942       -1.8648445242       -5.2773774189
 H         2.0439761153        3.2734973892       -4.8950479931
 H         0.5459528406        2.8814163309       -4.0671668564
 H         1.4527193017        6.8317965567       -1.7171090865
 H         0.1283449404        6.3045644325       -0.7225565858
 H         1.7921518215        5.7992185318       -0.2581354856
 H         2.9209926453        4.1481895042        0.2714296778
 H         3.4171335045        2.6064922309       -0.2885708430
 H         1.5726290553        3.0120877873       -0.0363369770
 H         4.0008128465        5.1471696829       -1.7079639755
 H         4.3317825286        3.7586345432       -2.7331273724
 H         3.4717488711        5.0490994730       -3.4246926679
 Na        1.5556919897       -0.6973558092       -1.9158515171
