155

 C        -3.3942037642        7.9392720669        4.0458542882
 C        -2.7128280895        6.8365313812        4.8966567310
 C        -3.4063753886        6.3838477831        6.3038167237
 C        -4.6488161005        5.5567882555        5.7784585145
 C        -4.4670964482        4.1191939630        5.3321181889
 C        -2.4889685784        5.5026242745        7.1710192475
 C        -3.9891715634        7.6027167018        7.0884637003
 O        -1.6667364318        6.3018477040        4.5322357771
 O        -5.7584523919        6.0972317820        5.6792039248
 C        -5.7475936472        3.5238148022        4.7384103140
 C        -5.9743764533        2.0206164585        5.0460211843
 C        -6.9170168819        1.3137603322        3.9782999008
 C        -6.1358684617        1.5034780250        2.5477238729
 C        -4.6084130325        1.6568476606        2.7086455205
 O        -5.4146889064        1.4775761858        6.0008294277
 O        -6.7769878365        1.6666654418        1.5557262228
 C        -7.0894199686       -0.1922205445        4.2123157957
 C        -8.2195818929        2.1133291350        3.8184055021
 C        -4.0060241670        1.9688269587        1.3225051677
 C        -3.1846986948        0.8525549974        0.6714754269
 C        -3.1566595962        0.8332202353       -0.9367047860
 C        -2.0367026074       -0.1591772624       -1.2364220890
 C        -2.1458346530       -1.7208207855       -1.5716384892
 C        -4.5042940406        0.4369008188       -1.5517972507
 C        -2.7483468256        2.2342417307       -1.5228103666
 O        -2.4385108850        0.0456098261        1.2330687261
 O        -0.8974638321        0.2649521442       -1.1003421669
 C        -2.2146541966       -2.4093473964       -0.2177887820
 C        -2.4198971345       -3.9067712741       -0.4398758917
 C        -2.2503352753       -4.8542426503        0.8187332266
 C        -0.6961776912       -4.8663275002        1.1475166299
 C         0.3661853347       -5.3399572581        0.0404979862
 O        -2.9414324391       -4.2988969344       -1.4601461894
 O        -0.3261954222       -4.5081063455        2.2204205044
 C        -3.0828825051       -4.1062223543        1.9428539333
 C        -2.9317236623       -6.1992295465        0.6259865246
 C         1.7656232326       -4.8347459423        0.4312672749
 C         1.6995733520       -3.3534141418        0.3427783878
 C         2.7511192759       -2.4344275490        1.1767668174
 C         3.9782302847       -2.1676818369        0.0063373029
 C         5.4109570730       -2.6833311731        0.3375961037
 C         2.0532696281       -1.1202071642        1.5795032298
 C         3.3155879412       -3.1236462518        2.4411831525
 O         1.1056687343       -2.9750846192       -0.6375112463
 O         3.7266299936       -1.7137765974       -1.0873378579
 C         6.3162795682       -2.9358845129       -0.8469080360
 C         5.7985169672       -4.0409991752       -1.9347519373
 C         6.1167899308       -3.8532101939       -3.4742990966
 C         4.7741558403       -3.1041783497       -3.8378692227
 C         3.6011575944       -4.0132026646       -3.8499116312
 O         5.1530941782       -5.0125348435       -1.5671178274
 O         4.7712325535       -1.8619153221       -3.8913151961
 C         7.3004478086       -3.0768421973       -3.9241061382
 C         6.1620443237       -5.2583783503       -4.0544627945
 C         2.5807075521       -3.6260368958       -4.8836735685
 C         1.6353264247       -2.4026678211       -4.4549040893
 C         1.1061585054       -1.2773464681       -5.4977086263
 C         0.8323602085       -0.0124389050       -4.6888066831
 C         1.6814478479        1.3099787219       -4.8402923936
 C         2.1258951483       -0.9573140337       -6.6186160725
 C        -0.1840983192       -1.8098663477       -6.0936904531
 O         1.2627496100       -2.4488961099       -3.3068243168
 O        -0.0826529351        0.0392412911       -3.8764147166
 C         1.0398913364        2.4327435987       -3.9708981720
 C         1.6063102118        2.5347436194       -2.5995239547
 C         2.1359403325        3.8519225552       -2.0685795464
 C         0.9606828863        4.8854856421       -2.1437140869
 C         1.0211913369        6.2382811104       -1.5175845662
 O         1.6017442587        1.5760559617       -1.8202980790
 O        -0.1068477644        4.6181968000       -2.6715486364
 C         2.6700662086        3.6531627593       -0.5662949602
 C         3.3034556104        4.2433980208       -2.8824110685
 H        -3.1351393115        7.9686714066        2.9665872064
 H        -4.4098272976        7.7263376915        4.0678940995
 H        -3.2684268054        8.8470404972        4.5502864396
 H        -3.6619231983        4.0404992316        4.6587811513
 H        -4.2085201800        3.4401141467        6.1219983501
 H        -1.6162454407        6.1285165307        7.5744026898
 H        -2.0328055872        4.6139749797        6.6363146796
 H        -3.0821012668        5.2159871347        8.0379298330
 H        -3.3132890388        8.4421445900        6.9217068179
 H        -5.0233301717        7.7200045567        6.8274716871
 H        -3.8987923883        7.3477306762        8.1542173941
 H        -6.5179963360        3.9425653924        5.3228207336
 H        -5.8446475367        3.7664994154        3.7227752009
 H        -4.3945965665        2.4486820822        3.4738012375
 H        -4.3079688626        0.7385805076        3.3311544065
 H        -7.5869881790       -0.4003773016        5.1347177716
 H        -6.1304929241       -0.6951505261        4.1205078369
 H        -7.6292694660       -0.5940374092        3.3411995214
 H        -8.8058680590        1.6492229350        2.9919871927
 H        -8.8481925471        2.0295329567        4.6871016317
 H        -8.0511033782        3.1447671213        3.4994614860
 H        -3.2670077322        2.8047995053        1.3268952454
 H        -4.7817951534        2.1336041565        0.5931784687
 H        -3.0143091315       -2.0728325321       -2.2710315633
 H        -1.2296707914       -1.9952839714       -2.1178454680
 H        -4.3055225498        0.5397780109       -2.6881176942
 H        -5.3232473087        1.0678996336       -1.2861496765
 H        -4.8816514491       -0.5836301235       -1.5239046393
 H        -1.6509046430        2.5058264113       -1.6239307721
 H        -3.0811683927        2.2763428602       -2.5927643931
 H        -3.2242674080        3.1001365538       -0.9898926486
 H        -1.1837044242       -2.2082868081        0.2577525966
 H        -2.9734806202       -1.9074328490        0.3931953893
 H         0.2998603093       -6.4022843062       -0.0226735935
 H         0.0459481807       -4.9798795256       -0.9479020473
 H        -3.2783555410       -4.8061213567        2.8211110674
 H        -3.9596816119       -3.6091235575        1.4606141397
 H        -2.4494470391       -3.3571948017        2.3835271766
 H        -3.9345334863       -6.0714227204        0.3495559702
 H        -2.5863488302       -6.7208047570       -0.3047058214
 H        -2.8781177015       -6.8400703656        1.5610277204
 H         2.5038276105       -5.0697929537       -0.2749117186
 H         1.9326016280       -5.2385264204        1.4375929422
 H         5.8745612464       -1.9821507925        1.0267847148
 H         5.1466620465       -3.6766969396        0.8179487280
 H         1.2437860311       -0.8500518240        0.8721942331
 H         2.7139431609       -0.2567464000        1.8268659308
 H         1.5994222684       -1.1837442365        2.5563328325
 H         4.0597553530       -2.5583707563        2.9489126050
 H         2.5460888981       -3.3220678057        3.1866204565
 H         3.8025913063       -4.0260288869        2.4281001256
 H         6.4980463164       -1.9646334163       -1.3503238877
 H         7.3365405681       -3.1910853042       -0.4901491583
 H         3.8872947527       -5.0887873298       -3.8919430674
 H         3.2170484704       -3.8504936995       -2.8130165120
 H         7.2624661477       -2.0720975465       -3.5131522066
 H         7.1933864983       -2.9530555786       -5.0244302355
 H         8.2580753701       -3.5901425207       -3.8196920110
 H         6.0919694479       -5.3433710934       -5.1401238285
 H         7.1709594814       -5.7427149428       -3.8960274733
 H         5.4180871990       -5.9178241980       -3.6378772449
 H         1.9429156864       -4.5290204699       -5.0332384488
 H         3.0638205900       -3.4658212973       -5.8110373744
 H         2.7644705239        1.1912265081       -4.6532990213
 H         1.6340951129        1.4728791490       -5.9127595965
 H         3.0356972460       -0.5973907661       -6.2303050901
 H         1.8448452273       -0.3137988957       -7.4573935147
 H         2.3820009182       -1.8717646433       -7.1389829396
 H        -0.5889860518       -1.1175223756       -6.8384558230
 H         0.2048456717       -2.6517199313       -6.7078579351
 H        -0.8896395638       -2.2044429880       -5.4210273086
 H         0.9946998892        3.3606123871       -4.5106822778
 H        -0.0422897516        2.2015301346       -3.8115875397
 H         1.8582764989        6.3610612002       -0.8301282048
 H         1.1643887667        6.9750739848       -2.3114603908
 H         0.0608996954        6.4673954541       -0.9773437153
 H         2.9911543913        4.5560391980        0.0031226906
 H         3.4587812680        2.9620034026       -0.5826117037
 H         1.9553607929        3.1347126232        0.0675341966
 H         3.7698175972        5.1480281974       -2.5168647069
 H         4.0610224878        3.4500822841       -3.0406197546
 H         2.9108686316        4.5026179379       -3.8248981501
 Na        1.2578516543       -0.7075444575       -1.6584736706
