155

 C        -3.6910814548        7.1604253895        3.8898058486
 C        -3.3447893946        6.2424279953        5.0003456823
 C        -4.1047088781        6.3832307789        6.4016656259
 C        -5.4652987604        5.6366824949        6.0437614132
 C        -5.5244710663        4.1137550351        6.2069252465
 C        -3.2450549256        5.7384638667        7.4600180959
 C        -4.4609444707        7.8218015567        6.8158619817
 O        -2.6287678527        5.2625974436        4.8445658295
 O        -6.3615037158        6.3570900899        5.5814676454
 C        -6.6331056585        3.5098763403        5.4039101287
 C        -6.3376923562        2.0154468288        5.2292643721
 C        -7.2024680120        1.0770251262        4.2802821093
 C        -6.5117945006        1.4274047410        2.8786108553
 C        -5.0034792494        1.2887010614        2.7589891410
 O        -5.4119791500        1.5368437958        5.8835119177
 O        -7.2021993883        1.8618477308        2.0067562268
 C        -7.0430630379       -0.4453818565        4.7010080666
 C        -8.6576595088        1.4632082276        4.3310928401
 C        -4.6757413921        1.5468713730        1.2332894824
 C        -3.2628156613        1.1966876771        0.7253386270
 C        -2.8785328190        1.2619448622       -0.7894645296
 C        -1.6562561558        0.1849472082       -1.0279412250
 C        -1.9059943993       -1.2341233254       -1.5488745958
 C        -4.1534810876        0.9229985390       -1.6943577706
 C        -2.3310896816        2.7016255534       -1.0429793607
 O        -2.3475204187        0.8693936025        1.4866197643
 O        -0.4663973214        0.4880199612       -0.8259233559
 C        -2.8096798726       -2.0462207505       -0.5995007241
 C        -2.4622584138       -3.5765381865       -0.8622675434
 C        -2.5916385027       -4.5578545280        0.3754299257
 C        -1.2061596119       -4.7748035120        1.0161378059
 C        -0.1255835996       -5.3255353711        0.2554217138
 O        -2.2652755320       -3.9682510299       -1.9763819659
 O        -1.1174263347       -4.5767118119        2.2170599538
 C        -3.5809045920       -4.0093592327        1.4777540406
 C        -3.0168579789       -5.9921772154       -0.2641491542
 C         1.2545746770       -4.7658079083        0.7703563523
 C         1.5984125407       -3.3949062166        0.2871205245
 C         2.8711905091       -2.6019259528        1.1124796168
 C         3.7084741572       -1.6105238914        0.1747328746
 C         5.2224164470       -2.0886664567       -0.0483715357
 C         2.1165096522       -1.5652948428        1.9958765003
 C         3.7165166695       -3.5420959981        1.9905441147
 O         0.9328577823       -2.8267177962       -0.5537557479
 O         3.1355513516       -0.6675280358       -0.3575692673
 C         5.6913100084       -2.2037494307       -1.5250300141
 C         5.9897874457       -3.7223610889       -1.9077104540
 C         6.6141011955       -3.9260336218       -3.3755988689
 C         5.4347950712       -3.5289076051       -4.3162829714
 C         4.2255110466       -4.4347200090       -4.3845615491
 O         5.7298802114       -4.5633207597       -1.0903479385
 O         5.4181867395       -2.4076404468       -4.8437154127
 C         7.8857031907       -2.9852763970       -3.6048262274
 C         7.0196485413       -5.4615738755       -3.5976680033
 C         3.1060285153       -3.8672762749       -5.2827995704
 C         2.6512752866       -2.4641216157       -4.6992494713
 C         1.9976500315       -1.4230351037       -5.6604195007
 C         1.3554244979       -0.3623153169       -4.7121528822
 C         2.0785996847        1.0412707265       -4.6316898513
 C         3.1941040127       -0.8169019168       -6.4563825639
 C         0.8815940701       -2.0989324947       -6.5519034675
 O         2.5420493953       -2.2784040882       -3.5176429508
 O         0.3334477403       -0.5707092858       -4.0213961099
 C         1.1133241105        2.0337980515       -3.7945509856
 C         1.7845671605        2.3382411707       -2.4606727758
 C         2.2218020432        3.8710596645       -2.1668165863
 C         0.8176177539        4.6241674388       -2.1793090473
 C         0.7108812432        6.1474212425       -2.3170567554
 O         1.9790864059        1.4610196717       -1.6250232763
 O        -0.1694081675        3.9424561482       -2.3662243041
 C         2.9848564276        4.0243641714       -0.7664174833
 C         3.1892113154        4.3151325624       -3.4370359190
 H        -3.0721575662        6.9390508488        3.0040451782
 H        -4.7136113674        7.0391271522        3.7082997264
 H        -3.4923799890        8.1704478704        4.0905181860
 H        -4.6083596348        3.7656939991        5.8090738417
 H        -5.5763317712        3.7932700226        7.1719274711
 H        -2.2724933304        6.3173799125        7.5468992821
 H        -2.8251860548        4.7299648347        7.3057236162
 H        -3.7224237703        5.7049473059        8.4137393050
 H        -4.3012860455        8.5891061371        6.0449278487
 H        -5.4911021279        7.9194174437        7.1034414428
 H        -3.7162232838        8.0586973328        7.6088592450
 H        -7.5605709645        3.6841332647        5.8706516424
 H        -6.8811075833        4.0184937453        4.5001040505
 H        -4.6548341173        2.0671984387        3.4600458177
 H        -4.6635099071        0.2217614012        3.0391095236
 H        -7.6892109724       -0.6818771369        5.5570911292
 H        -6.0336816628       -0.6220220561        5.0420504724
 H        -7.4220206399       -0.9699814134        3.8332313250
 H        -9.2146421500        0.5851315170        4.0984840907
 H        -8.9649262382        1.8519683679        5.3105583468
 H        -9.0140623476        2.2162827723        3.6594018826
 H        -4.9721427836        2.5238467199        0.8217123410
 H        -5.3781349061        0.8782501293        0.5838995978
 H        -2.4304099067       -1.2047456545       -2.5558059568
 H        -0.8604696274       -1.6667631872       -1.6335570847
 H        -3.9711512741        0.6052103636       -2.7750619600
 H        -4.7436958861        1.7938562065       -1.8800818920
 H        -4.9002151932        0.2825721703       -1.2169621121
 H        -1.5563678872        3.0487868317       -0.3001300329
 H        -1.8649067815        2.7949910025       -2.0558418239
 H        -3.0432281584        3.5746217777       -0.9877409707
 H        -2.4763598893       -1.9112162380        0.3611168945
 H        -3.9226885536       -1.7223227874       -0.6924864600
 H        -0.1809823032       -6.4652695992        0.4055774521
 H        -0.2538037231       -5.1306769949       -0.7629503653
 H        -3.5187361253       -4.5942804811        2.4473656775
 H        -4.6020014087       -4.0400983634        0.9649815275
 H        -3.2730410255       -2.9864047179        1.5638331312
 H        -3.9294040687       -5.9037086874       -0.7834651838
 H        -2.1676168661       -6.1994660757       -1.0178102794
 H        -3.1114601434       -6.8596352912        0.4599665142
 H         2.1440418959       -5.3498590151        0.5254409619
 H         1.1880305836       -4.7845936439        1.8082140280
 H         5.9354167308       -1.4213605812        0.5183790770
 H         5.4084119464       -3.0144349309        0.5479357998
 H         1.7646540272       -0.7646380830        1.2915959767
 H         2.8765074125       -1.0564946756        2.6463969221
 H         1.2235419180       -1.9423215709        2.5790580035
 H         4.5408285084       -2.9965859749        2.4675685420
 H         3.1071614755       -3.9707991335        2.7692540210
 H         4.1509265357       -4.4155533336        1.5185573459
 H         5.0635655009       -1.7509798476       -2.1527315688
 H         6.6800759425       -1.7028381106       -1.4996019796
 H         4.5608863334       -5.3916530897       -4.8256087858
 H         3.9073005666       -4.5461432447       -3.3337268156
 H         7.8015601574       -1.8892919292       -3.3256085016
 H         8.0881138412       -2.9729595397       -4.6470438815
 H         8.7415473453       -3.4573738115       -3.0776841286
 H         7.2596885502       -5.7529498854       -4.6592274445
 H         7.9523339743       -5.7130392491       -3.0244788358
 H         6.2005157013       -6.0809711561       -3.3687150632
 H         2.3240115371       -4.5985142535       -5.0312466064
 H         3.3734122352       -3.9450385104       -6.3448756260
 H         2.9459121337        0.9951400764       -3.9884532410
 H         2.4319952017        1.4015070225       -5.6910347666
 H         4.0615341156       -0.5037981262       -5.8897035666
 H         3.0018481908       -0.0069266536       -7.0897334024
 H         3.6760008046       -1.5174339896       -7.1388589186
 H         0.3872534830       -1.3372559715       -7.1293572184
 H         1.3653041670       -2.8682306269       -7.1476165332
 H         0.0813798299       -2.4880509965       -5.9452579803
 H         1.0391722746        2.9658426305       -4.3517189040
 H         0.1434941483        1.6328259256       -3.5804123602
 H        -0.0172323466        6.3300374834       -3.0829516057
 H         0.3569853979        6.6442497897       -1.3820395716
 H         1.7237540500        6.6417247337       -2.5267001198
 H         3.3202762211        5.0567624564       -0.4103554505
 H         3.9228187371        3.4605490688       -0.7857721262
 H         2.3341349286        3.6649769260        0.0534589745
 H         3.9538972457        5.0542035328       -3.2251342144
 H         3.6672956259        3.4242742532       -3.8261996870
 H         2.6071960406        4.6226049514       -4.3373323261
 Na        1.2911880483       -0.8551014523       -1.5896503868
