155

 C        -8.4312131579       -6.6595079117       -0.2024266405
 C        -8.2154471250       -6.1398901923        1.2603366669
 C        -7.8434790965       -4.5430420275        1.4982910197
 C        -6.3016639076       -4.6342289066        1.4617260400
 C        -5.5494879664       -5.7713065098        2.1118254080
 C        -8.2430768875       -3.6695378498        0.2939228950
 C        -8.5208583266       -3.9778241951        2.8159545686
 O        -8.2672440609       -6.8490712729        2.1923781472
 O        -5.6183309717       -3.7751868818        0.9184880201
 C        -4.0866871167       -5.4743980863        2.5243600587
 C        -3.9165039842       -4.0293556692        3.2819663556
 C        -2.5606619500       -3.3184536957        3.1108964255
 C        -1.9046167659       -3.5687016908        1.7383760716
 C        -2.1997448334       -2.8685014580        0.4331825533
 O        -4.7733445459       -3.6178086288        4.0382705828
 O        -1.0109563231       -4.4693314640        1.6610149175
 C        -2.7070560808       -1.7486638338        3.3797361802
 C        -1.5491026196       -3.7526098417        4.2227706728
 C        -1.3728861360       -3.2997838538       -0.8273132803
 C        -0.7290257286       -1.9388417279       -1.3277682099
 C         0.4378425596       -1.9106157044       -2.4584903459
 C         0.0694839246       -1.0247313743       -3.7186692538
 C         0.5198712267       -1.5813730622       -5.1019604389
 C         1.5774387046       -1.1273514166       -1.8679979066
 C         0.7745264696       -3.3047621826       -2.8598028714
 O        -1.1682859649       -0.9123942311       -0.9411196899
 O        -0.3089392876        0.0957629014       -3.4569350469
 C        -0.0391988868       -0.7630108429       -6.2373740407
 C        -1.5790521659       -0.6586361611       -6.2578947271
 C        -2.3731082669        0.2360865041       -7.2623736029
 C        -3.2552546233        1.2836346311       -6.5356869641
 C        -4.4549621183        0.7504342232       -5.7095001739
 O        -2.3314056434       -1.3250918721       -5.5365582791
 O        -3.1226439680        2.4996124043       -6.5201556771
 C        -1.5925445427        0.9562451982       -8.4147650440
 C        -3.3402092860       -0.7535834962       -7.9013628910
 C        -4.9967457518        1.6764468273       -4.6224363627
 C        -3.8705673512        2.2691987210       -3.7665546708
 C        -4.1157530171        3.6728144994       -3.0230305015
 C        -2.6706117771        4.0361292255       -2.4325912475
 C        -1.5829228633        4.7302827322       -3.2330752798
 C        -4.5091503499        4.5580903350       -4.2148142166
 C        -5.2824633573        3.4465387929       -1.9226699494
 O        -2.8220166641        1.6787561370       -3.6497172871
 O        -2.4113117208        3.4937046476       -1.3409773188
 C        -0.4684904223        5.3584206619       -2.4485061343
 C         0.2405396099        4.2800642230       -1.6300800210
 C         0.5252069741        4.6802266139       -0.1065203378
 C         1.1330250755        3.3391555720        0.6024924517
 C         2.1707226742        3.6376824118        1.7400079075
 O         0.6320665503        3.2428339187       -2.1911971383
 O         0.6625949580        2.2259954611        0.4932787368
 C         1.5348897665        5.9321674981       -0.0541320678
 C        -0.6731262162        5.0377495997        0.7440554709
 C         3.6373061655        3.3128699603        1.2457585881
 C         3.9621487215        1.6811151988        1.4059908428
 C         5.4706566181        1.1631370546        1.5444748130
 C         5.8000422925        1.2241635219        3.0560528726
 C         6.1274388114       -0.1037144792        3.6744593089
 C         5.5357884327       -0.2616130398        0.9412760135
 C         6.4983803122        1.9518287288        0.6487702988
 O         3.1261907733        0.8661753285        1.4635150332
 O         5.7295146042        2.1880181643        3.8027298292
 C         6.8308098773       -0.1014621891        5.0257631256
 C         8.3114706481        0.2993948088        4.9324313801
 C         9.0348560989        0.8232111424        6.2384720945
 C         8.2396027963        2.1758924573        6.5141792360
 C         9.0455295912        3.4138757483        6.3479585067
 O         8.6854178950        0.6210048919        3.8229632031
 O         7.1183731513        2.1739277363        6.8864022480
 C         8.6565878051       -0.0772792775        7.5111947546
 C        10.5320899621        0.8972064092        5.9165132886
 H        -7.9864443743       -5.9373038052       -0.8862379427
 H        -8.0217212532       -7.6411947247       -0.3740852900
 H        -9.5011905869       -6.7029322044       -0.4273752435
 H        -6.0852677960       -6.0364313642        3.0577671669
 H        -5.6831186003       -6.5807450858        1.4279886402
 H        -8.0289315456       -2.6869801078        0.6868357421
 H        -9.2632413536       -3.7102109580       -0.0103096396
 H        -7.6832508753       -3.8564150153       -0.6498537549
 H        -8.3624649755       -2.8916284566        2.7904361843
 H        -9.5509049859       -4.2376246444        2.9187668503
 H        -8.0443012488       -4.3027893835        3.7724938230
 H        -3.7603458556       -6.2683269017        3.2309043639
 H        -3.3317543241       -5.4699931418        1.8325501674
 H        -3.1777298146       -3.1854476127        0.1143890544
 H        -2.2080283362       -1.8370424805        0.4704029521
 H        -1.8447650387       -1.0721406351        3.3453780009
 H        -3.3040012164       -1.8624001275        4.3216178774
 H        -3.4291958792       -1.3301725806        2.5791019656
 H        -1.8138345485       -4.6913011098        4.7052565252
 H        -0.5422635179       -3.7691423217        3.7465061683
 H        -1.4789847232       -3.1232425636        5.0941074423
 H        -1.9573632500       -3.8741667710       -1.5383419321
 H        -0.5640715133       -3.9837322725       -0.5481053382
 H         1.6271957769       -1.5950262142       -5.0778152123
 H         0.1795847843       -2.6603573821       -5.1422769550
 H         2.5025050087       -1.1219998913       -2.4406015435
 H         1.7315600108       -1.4632333668       -0.7626866502
 H         1.3172617133       -0.1102055047       -1.6404956427
 H         1.0474332954       -3.9674746071       -2.0360033671
 H        -0.1336537980       -3.7550151171       -3.3570074109
 H         1.6645177681       -3.3073953594       -3.5498805305
 H         0.3042017725        0.2491757755       -6.0758816986
 H         0.2582053762       -1.0638958032       -7.2007352282
 H        -5.2818632643        0.5511725270       -6.4260841825
 H        -4.0854437007       -0.1264906855       -5.2148189300
 H        -0.9153559413        1.6492913429       -7.9689280464
 H        -2.3765322050        1.4651482982       -8.9889322208
 H        -1.0224341079        0.3559176224       -9.1210904222
 H        -4.0342400877       -0.2843619620       -8.5269200005
 H        -2.6168690623       -1.4099613553       -8.4772647192
 H        -3.7688641083       -1.4510383048       -7.1837887283
 H        -5.5865772811        0.9155379644       -4.0583404343
 H        -5.7658393476        2.3142651617       -5.0251279510
 H        -1.1034105298        3.8719473179       -3.7409343834
 H        -2.1028772331        5.3893470228       -3.8839386037
 H        -3.8198923213        4.3035610923       -5.0155308765
 H        -4.6357282756        5.6425455825       -3.9649877568
 H        -5.4000748727        4.1719392219       -4.6618050002
 H        -5.5655012263        4.4155198422       -1.4362163543
 H        -6.2199793026        3.2024596967       -2.4004666315
 H        -4.8789438640        2.6493750259       -1.2949462456
 H         0.2996361660        5.7607814010       -3.1171594885
 H        -0.7446754170        6.2349804079       -1.8565249742
 H         2.2012009362        4.6540911774        2.1743963902
 H         2.0823078348        2.9924447780        2.6213376121
 H         1.2225441277        6.8306145273       -0.6500109505
 H         2.6058530562        5.6177114368       -0.3434513376
 H         1.6862809002        6.2284692057        0.9465071471
 H        -0.3811513691        4.9921233199        1.8119443371
 H        -0.9528836795        6.0451017612        0.5656904552
 H        -1.4865541803        4.2454139312        0.6180289457
 H         4.4513676750        3.9770578051        1.5708839013
 H         3.7870202797        3.4953094576        0.1338936552
 H         5.2997412821       -0.7213615139        3.5859819454
 H         6.8370964680       -0.5361731737        3.0577299365
 H         4.8952375819       -1.0096475586        1.4424329121
 H         6.5998471949       -0.5357608598        0.7239754375
 H         5.1913051876       -0.2030590351       -0.1023579881
 H         7.5088337163        1.8524262648        0.9887251826
 H         6.4285173564        1.5610921542       -0.3605765812
 H         6.2076602705        3.0002224657        0.7394486977
 H         6.3862683925        0.6668639152        5.7062864287
 H         6.7675473388       -1.0895631064        5.5967130393
 H         8.4586793688        4.2994061420        6.4770165665
 H         9.7799165449        3.4359046391        7.1329760738
 H         9.5317244197        3.4457535239        5.4005001872
 H         9.5557666958       -0.1604873622        8.1773983782
 H         8.2665251793       -1.0793072210        7.2197431410
 H         7.8953418725        0.5071536478        8.0921242392
 H        11.0601811344        1.2373078001        6.7554974531
 H        10.9179202058       -0.1370909852        5.6931596826
 H        10.5328656541        1.5813802382        5.0759253146
 Na       -1.0546696988        1.3761265594       -1.4984838879
