155

 C        -3.5728773792        6.9600815786        3.9198913138
 C        -3.8716759935        6.0476971887        5.0689822486
 C        -4.9089090432        6.5409034599        6.2108132442
 C        -6.1815093032        5.5417458915        6.1093996282
 C        -5.8128404484        4.0798360053        6.3668497061
 C        -4.2268567180        6.2740979933        7.5822809320
 C        -5.4127446632        7.9430376945        6.0591404613
 O        -3.2769904746        4.9730927013        5.2215509976
 O        -7.3013233390        6.0127586175        6.1310618666
 C        -6.9716312855        3.1639313182        5.9917185887
 C        -6.4322442738        1.6887227031        5.7072145334
 C        -7.3674353867        0.9214522494        4.6529202961
 C        -6.6853568135        1.3101233823        3.2426361683
 C        -5.4038314150        0.5667157792        2.7396055424
 O        -5.4490944595        1.1703231976        6.2255630494
 O        -7.0506481026        2.2319871979        2.5525548479
 C        -7.2305975147       -0.6688409939        4.7754858001
 C        -8.7711922069        1.3207145626        4.5421728537
 C        -4.8955584871        1.2372788573        1.5070177748
 C        -3.7650325713        0.5614768032        0.8474676361
 C        -3.0523468927        1.2010334587       -0.4806404677
 C        -2.0169707055        0.2013858068       -1.1473121785
 C        -2.4263367514       -1.1841022216       -1.7939527025
 C        -3.9965463592        1.7200853439       -1.6237552496
 C        -2.1432892759        2.2689678768        0.2379464119
 O        -3.3557332352       -0.4845812567        1.2994887765
 O        -0.8244336497        0.5317354365       -1.1939008200
 C        -2.8198131063       -2.2302320961       -0.7095443368
 C        -2.8123714560       -3.6549543671       -1.3189916153
 C        -2.5427367658       -4.8011149909       -0.2454449013
 C        -1.2862940873       -4.5146531682        0.7078232421
 C         0.0987763752       -5.2440167533        0.3501540130
 O        -3.0155100580       -3.8758395920       -2.4754264683
 O        -1.4242115867       -4.1035157509        1.8458702746
 C        -3.7938528776       -5.0032602250        0.6314932647
 C        -2.3062741436       -6.1661392033       -1.0078496079
 C         1.3705701303       -4.6754166448        0.9789352916
 C         1.4802322637       -3.2192480205        0.5918630361
 C         2.6462641507       -2.3096558725        1.2735373917
 C         3.7151769639       -1.8691263046        0.1315097144
 C         5.1630970791       -2.3240248595        0.2917504809
 C         1.9705145640       -0.9117813931        1.7145221866
 C         3.1661420412       -3.1164003190        2.5034602782
 O         0.7827312274       -2.7349993761       -0.2795362827
 O         3.5237887245       -1.0243810578       -0.7068042815
 C         5.9841630098       -2.1878492971       -1.0448512397
 C         6.1586602001       -3.5651170770       -1.6655003456
 C         7.0161421680       -3.7981640689       -3.0929287014
 C         5.9369972936       -3.5990409537       -4.1786520052
 C         4.6048619191       -4.4697447984       -4.1347790726
 O         5.9448077226       -4.5762501822       -1.0271749225
 O         6.0407971331       -2.6691451298       -5.0081606145
 C         8.1897611015       -2.7391180598       -3.2915847664
 C         7.5420782942       -5.2372555937       -3.0913634326
 C         3.5185477959       -3.7443551001       -4.9312311237
 C         2.9545605547       -2.3859263457       -4.3789287784
 C         2.4538636208       -1.3291281080       -5.4491065573
 C         1.9108823630       -0.0353706797       -4.7857768864
 C         2.3199213111        1.3788826933       -5.2904655680
 C         3.5392128013       -1.1827977410       -6.5992176195
 C         1.2809954168       -2.0397539546       -6.2606384276
 O         2.7493252146       -2.2066482517       -3.2106243058
 O         1.0529825733       -0.0963364053       -3.9799250572
 C         1.7849072483        2.4854638201       -4.4324433928
 C         2.2402695972        2.5702158598       -2.9979550603
 C         2.4948819778        3.9803563398       -2.5384544190
 C         1.3270982271        4.9321220351       -2.8109475562
 C         1.6052078433        6.4454230946       -2.4747709414
 O         2.3604841036        1.5645989126       -2.3208239810
 O         0.3078305900        4.4797813346       -3.3065798208
 C         3.0858020494        3.9989013428       -1.1220195206
 C         3.6441293203        4.4354370764       -3.3471346204
 H        -2.5114013027        6.8881821284        3.8458274257
 H        -3.8672811304        6.7343519455        2.9245152715
 H        -3.8692303945        7.9444542713        4.1864502848
 H        -4.9134099106        3.8102935380        5.8266237420
 H        -5.5404948247        3.9492468624        7.3389922572
 H        -3.5092802186        7.0771785122        7.8932162021
 H        -3.6965712287        5.3444177173        7.6242146940
 H        -4.8810166591        6.1870909369        8.4338774796
 H        -5.9616482870        8.0737015085        5.1352584341
 H        -6.0772034579        8.2641664812        6.8751046209
 H        -4.6746572741        8.7281793651        6.1768547596
 H        -7.6994602014        3.0960887639        6.7582598060
 H        -7.3506890426        3.5922195063        5.1173145767
 H        -4.6689557757        0.5132204208        3.5727857758
 H        -5.5788271813       -0.5151467378        2.5991827939
 H        -7.6512930720       -0.8203479971        5.7826438882
 H        -6.1749481636       -0.9641987593        4.7370146772
 H        -7.8215197947       -1.0526612103        4.0035464447
 H        -9.3437801994        0.5983087143        4.0005696710
 H        -9.2925579249        1.3077153981        5.5073166160
 H        -8.8938011270        2.2456537966        4.0009242780
 H        -4.6611245264        2.2712220321        1.8096253600
 H        -5.8310304024        1.2182492566        0.7561584527
 H        -3.1680680813       -0.9698087793       -2.6405260951
 H        -1.5441603208       -1.5858880632       -2.3666005642
 H        -3.3752595917        2.2453451470       -2.3225679888
 H        -4.7442000466        2.3951433321       -1.1436666863
 H        -4.5027360720        0.8699997781       -2.1413243084
 H        -1.4217346779        1.6213002795        0.7648459146
 H        -1.6129740139        3.0011087406       -0.4523804240
 H        -2.6884197927        2.9287190067        0.9520178546
 H        -2.1609213358       -2.2677131172        0.1551277145
 H        -3.8522465863       -2.0900479550       -0.3177329262
 H        -0.0571739102       -6.2202654618        0.6701653587
 H         0.3944720226       -5.2994808624       -0.7276653099
 H        -3.6498983388       -6.0642548708        0.9993101640
 H        -4.7547180802       -5.0765876482       -0.0155695255
 H        -3.8642329658       -4.2583335772        1.4516906912
 H        -3.1309852021       -6.5187114371       -1.5756019124
 H        -1.3954517190       -6.0795936466       -1.6882480763
 H        -1.9605224859       -6.9135578791       -0.2581139131
 H         2.2456636751       -5.1374283991        0.7100072502
 H         1.3046602111       -4.8322603586        2.0409861698
 H         5.6865917379       -1.5639699020        0.9414866546
 H         5.3819085834       -3.2663587667        0.8256887038
 H         1.5474643066       -0.4392356526        0.7810654768
 H         2.7802626036       -0.2672935383        2.1166151230
 H         1.1006006765       -1.1632659696        2.4204449283
 H         3.8705640093       -2.5061563135        3.0504152605
 H         2.2695381982       -3.1957538274        3.0623833727
 H         3.5550574026       -4.1311707053        2.1971753310
 H         5.5567300910       -1.5541787860       -1.7645336348
 H         7.0209685987       -1.7758032384       -0.8619616625
 H         4.7358984884       -5.4778230668       -4.5622176443
 H         4.3410624607       -4.6676238652       -3.0720070413
 H         7.9788085127       -1.8638100170       -2.6455338004
 H         8.3542241976       -2.4959252867       -4.3184050585
 H         9.0903760218       -3.1595513801       -2.8235789879
 H         7.7722120529       -5.4344763160       -4.1681152273
 H         8.3531125661       -5.3770288845       -2.3978469972
 H         6.8317865305       -5.8910190613       -2.6301635855
 H         2.7262556246       -4.4597611370       -5.1525527397
 H         3.9784547112       -3.5671682610       -5.9783638152
 H         3.4753305368        1.3489808145       -5.3259458404
 H         2.0476804379        1.5253028731       -6.3689066591
 H         4.6020376532       -1.2603473457       -6.3181346442
 H         3.5959549078       -0.2856333341       -7.1086135427
 H         3.5115450730       -2.0112893394       -7.2630412291
 H         1.2276406983       -1.5916150288       -7.2060418129
 H         1.5025314921       -3.0862506624       -6.4265086845
 H         0.3023760184       -2.0535994744       -5.7371039049
 H         1.9803581613        3.3867736011       -4.9572138196
 H         0.7161995252        2.4548776071       -4.4067065531
 H         2.2983567279        6.9977447080       -3.0998827806
 H         0.5889001811        6.8605185273       -2.6400100498
 H         1.9610998728        6.5984692363       -1.4212007513
 H         3.3195778687        5.0868236846       -0.8719509906
 H         3.9991166020        3.3431265565       -1.1736370824
 H         2.4482537011        3.5287698023       -0.3441337690
 H         4.4259169929        5.0153524674       -2.8764269872
 H         4.1405303211        3.5283310797       -3.5524262137
 H         3.2909599911        4.9400434698       -4.2736495188
 Na        1.2694165149       -0.5280917102       -1.7208384158
