155

 C        -7.3788411018        8.0139656753        4.9738114610
 C        -6.3180942536        7.1410260664        5.5430491900
 C        -6.7918630479        6.2230884391        6.8642360803
 C        -7.3799572522        4.9150295942        6.1645717903
 C        -6.4821985754        3.7422530762        5.7918052339
 C        -5.4564638032        6.1192790217        7.7474278550
 C        -7.8896476273        6.9805514223        7.7040850872
 O        -5.1789040902        7.1081385768        5.1212849191
 O        -8.6094287179        4.8672568145        6.0008765225
 C        -7.1632849786        2.6144662638        4.9526764663
 C        -6.2312840482        1.5185488312        4.5952470483
 C        -6.8854704210        0.1351171551        3.9655955440
 C        -6.7547149549        0.4069560638        2.4620829509
 C        -5.3832180873        0.0207109566        1.8040823661
 O        -5.0365935591        1.5396102555        4.6332582368
 O        -7.7146546103        0.8163106441        1.8554796970
 C        -6.0260210516       -0.9595416497        4.5437985368
 C        -8.4524684952        0.0741902109        4.2481199767
 C        -5.2254111408        0.8481246162        0.5000176359
 C        -3.9321676324        0.1722235912       -0.1462973694
 C        -2.9554314919        1.1999191744       -0.9295890795
 C        -1.7860409830        0.3328411498       -1.3180682736
 C        -1.9237106972       -0.8016789188       -2.3433076486
 C        -3.6852544346        1.6923880996       -2.1696446203
 C        -2.6378954200        2.3009155652        0.0926982125
 O        -3.6663398270       -1.0079066633        0.1307215339
 O        -0.6540836122        0.6889054480       -0.9521456966
 C        -1.7749095576       -2.2075726431       -1.6666057153
 C        -0.8353460497       -3.1517447456       -2.3674198970
 C        -0.9523440473       -4.6378787544       -2.2626595993
 C        -0.2439259674       -5.0426010991       -0.7951351671
 C         1.2947569477       -5.1449180881       -0.8023011445
 O         0.1711032976       -2.6338572778       -2.8037138014
 O        -0.9449001337       -5.2235388541        0.1467830737
 C        -2.3615322991       -5.1587316637       -2.2001209583
 C        -0.1925994079       -5.2218901667       -3.4899949243
 C         1.8642528924       -4.7628885401        0.5414507803
 C         1.6205362243       -3.0877942226        0.6552564068
 C         2.2157570316       -2.2322763118        1.9048324069
 C         3.1029603267       -1.0890145676        1.2624420491
 C         4.6588730634       -1.0831118403        1.5294054730
 C         1.0757687934       -1.5789337045        2.7936698848
 C         2.9599202386       -3.2460326434        2.8031490541
 O         0.7774409025       -2.5621356085       -0.0244348633
 O         2.6575272238       -0.2123807039        0.5463646303
 C         5.4460900923       -0.9392857576        0.1699670233
 C         5.7273827810       -2.3779984891       -0.3659259117
 C         6.7498965344       -2.5323245447       -1.5604497656
 C         5.7501335223       -2.5515279509       -2.8945074759
 C         5.0202524170       -3.8879359240       -3.1195712741
 O         5.0881989419       -3.3337727315        0.0573933914
 O         5.4723208843       -1.5699609479       -3.5575751998
 C         7.7726068413       -1.3711563317       -1.8481476568
 C         7.3670665603       -3.8815692138       -1.5927750314
 C         4.1114362104       -3.6614739149       -4.3684543870
 C         3.0560445714       -2.5530090235       -3.9868250265
 C         2.2501991657       -1.9109538668       -5.2693583968
 C         1.7934578426       -0.4466621689       -4.8005288483
 C         2.7745614212        0.7201532561       -4.9256159477
 C         3.2502793134       -1.8089305328       -6.5868933938
 C         1.1113997531       -2.7718585241       -5.6312030758
 O         2.8422501690       -2.2860033061       -2.8274064456
 O         0.7037529255       -0.2845522585       -4.3247227893
 C         2.2440270245        1.8683579184       -4.0646853201
 C         2.7638748244        1.9397662089       -2.6539389888
 C         3.4966079627        3.2972568308       -2.2497047813
 C         2.3814480178        4.5486853165       -2.4308067436
 C         2.6705709311        5.7873363294       -1.5925588810
 O         2.6383005484        1.0948143138       -1.8099891568
 O         1.5021819671        4.5539996250       -3.2703341279
 C         3.9990514057        3.2066809030       -0.7835184465
 C         4.7566436280        3.7289158607       -3.1452325229
 H        -8.3869469092        7.8776839333        5.4356835958
 H        -6.9880756051        9.0454363126        5.2052538166
 H        -7.3684091085        7.8256927896        3.8280427346
 H        -5.6728224950        4.1807514851        5.1861818735
 H        -5.9683411679        3.2626786019        6.7133014685
 H        -4.8791758282        7.0451485358        7.6105073272
 H        -4.7806720901        5.3228915130        7.4311467928
 H        -5.6607044694        5.9204961499        8.7576067898
 H        -8.8094221799        6.8931931760        7.1718998536
 H        -8.0738631674        6.4748899788        8.6963652426
 H        -7.6475924439        8.0280345362        7.8327717361
 H        -8.0480722469        2.2077752166        5.3857083251
 H        -7.5736733263        3.1005969432        3.9760278798
 H        -4.6711643594        0.3684329584        2.4992987012
 H        -5.4569741726       -1.0994682610        1.6218005097
 H        -6.0636671133       -1.0029388063        5.6133588518
 H        -5.0237738309       -0.7626597811        4.2801127782
 H        -6.1996745387       -2.0403065987        4.2163241953
 H        -8.8479289454       -0.9318037943        4.0444972850
 H        -8.5946512812        0.3121384583        5.3091026153
 H        -8.9632662769        0.7745739589        3.6036945384
 H        -4.9741897783        1.9332705075        0.6874021132
 H        -6.0937139574        1.0244709995       -0.1700957997
 H        -2.8626488132       -0.9242198356       -2.8935903955
 H        -1.2201252900       -0.6159062605       -3.1044279877
 H        -2.9904233609        1.5881927269       -3.0636840587
 H        -4.0091272122        2.6546444027       -2.3080059404
 H        -4.5536235560        1.0563532101       -2.4438954546
 H        -2.5564783782        1.9655818173        1.0993762695
 H        -1.7357079837        2.7543850860       -0.1432848593
 H        -3.3311589412        3.1021720068        0.1107429138
 H        -1.3155984803       -2.1626562956       -0.6986368530
 H        -2.8439134646       -2.4945569284       -1.3888395853
 H         1.5431717155       -6.2205831438       -0.9749813498
 H         1.6239177861       -4.6112976564       -1.6676765088
 H        -2.3105586144       -6.2660333413       -2.3567188875
 H        -3.0688076296       -4.7552371170       -2.9936943320
 H        -2.7673841750       -4.8356218211       -1.2285072456
 H        -0.5523640670       -4.6784242834       -4.3157912808
 H         0.9000594027       -4.9298763361       -3.3376783042
 H        -0.2982236069       -6.3021756165       -3.6257551933
 H         2.9748997343       -5.1256618729        0.6499425937
 H         1.4389744434       -5.2846742164        1.4222706679
 H         4.8917900811       -0.3414897198        2.2604343439
 H         4.9396519045       -2.0561960359        1.9972583815
 H         0.5940190117       -0.7656451576        2.2507933190
 H         1.5161362610       -1.1327766562        3.6643727282
 H         0.2686972657       -2.3274694952        2.9627164461
 H         3.3158396198       -2.8257648822        3.7457438659
 H         2.3074906545       -4.1078343633        3.0527458332
 H         3.8200036083       -3.7955435049        2.3028457172
 H         4.8299161109       -0.4769986307       -0.5673935094
 H         6.4070375802       -0.2997884807        0.2854553695
 H         5.6401233943       -4.7657351573       -3.3577579657
 H         4.6127553626       -4.1645108536       -2.1418242703
 H         7.1052130564       -0.5082322308       -2.0690063618
 H         8.3196402717       -1.4548009719       -2.7297790693
 H         8.3837359076       -1.1953161275       -0.9211973726
 H         7.5374118261       -4.3067796901       -2.6505555779
 H         8.3941487167       -3.8900578158       -1.2188672543
 H         6.6909104787       -4.5267020367       -1.0749915730
 H         3.7495160285       -4.6362192644       -4.6720374123
 H         4.7527366333       -3.2454046989       -5.1221267752
 H         3.7535969002        0.3440942909       -4.5060661791
 H         2.8676363485        0.9241195618       -5.9522872709
 H         4.1007555550       -1.3670833893       -6.1389149667
 H         2.7863866739       -1.2094615287       -7.3473507556
 H         3.3837308861       -2.8332607964       -6.9856486236
 H         0.9233314918       -2.6574189514       -6.6603132291
 H         1.1371199378       -3.8105375967       -5.3343942481
 H         0.1633359929       -2.2438150001       -5.1591069369
 H         2.3364199397        2.8349428919       -4.5533164026
 H         1.1706973965        1.7271153458       -3.9140423556
 H         3.7440695918        5.8545385440       -1.6192955352
 H         2.2672468922        6.6489034820       -2.1197637247
 H         2.2449225019        5.6144063446       -0.5326188488
 H         4.2126141563        4.2403087138       -0.5282627967
 H         4.9393628447        2.7477704663       -0.7400540446
 H         3.2677900892        2.8570814766       -0.0240088462
 H         5.5034086224        2.9287469151       -3.2020514983
 H         4.4175473026        4.0334602349       -4.1362314163
 H         5.2484200741        4.5872427333       -2.6534012579
 Na        1.0990806018       -0.7912704259       -1.7453325638
