155

 C        -7.9995226648        7.7297854255        4.9435929312
 C        -6.7829469267        7.0903005927        5.5942457123
 C        -7.0762201846        6.2613557927        6.9152119458
 C        -7.7114022679        4.8987478978        6.3930129009
 C        -6.7731823142        3.9909744532        5.6794832575
 C        -5.6980801027        5.9709145549        7.6157053061
 C        -8.0408079512        6.9832310210        7.9232444072
 O        -5.6245708583        7.1457704642        5.2571588048
 O        -8.9354207921        4.6578442630        6.4559947135
 C        -7.0723978496        2.4335798975        5.8540482744
 C        -6.2803053061        1.6999610139        4.6850909320
 C        -7.0140312681        0.4564101515        3.9043986435
 C        -6.8710907964        0.6861062592        2.2644571894
 C        -5.4641054916        0.7190903719        1.5657262071
 O        -5.1595958587        1.9700000787        4.3316310104
 O        -7.8434968686        0.9099104760        1.5890596913
 C        -6.1421863145       -0.6725655391        4.4447665054
 C        -8.4700594477        0.1076389736        4.2134718853
 C        -5.4405223672        0.7619874101        0.0439962493
 C        -4.1912459865       -0.0319007908       -0.3797760513
 C        -3.1270372907        0.7787095189       -1.1233703687
 C        -1.8748491531       -0.0781024221       -1.6630723751
 C        -2.0005583275       -1.1167392872       -2.7951491543
 C        -3.7095039079        1.4776959608       -2.3384094461
 C        -2.5960922428        1.8375470668       -0.0721021079
 O        -3.8763385803       -1.0800694197        0.1203988071
 O        -0.7815654480        0.0236151803       -1.1418948277
 C        -2.0932854039       -2.5679572734       -2.0767963008
 C        -0.9582291403       -3.4375385124       -2.4689497185
 C        -1.0788423754       -5.0544641924       -2.0558281508
 C        -0.0618437269       -5.1554518947       -0.7965108360
 C         1.5079493533       -5.0558434408       -1.0003472783
 O         0.0000574967       -3.0594446906       -3.1560731185
 O        -0.5249435237       -5.2665551074        0.3141222829
 C        -2.4762837629       -5.4750011934       -1.5269622187
 C        -0.6048922539       -5.8510049535       -3.2631722604
 C         2.0680645233       -4.4694753599        0.3084628379
 C         1.5311777295       -3.1155264471        0.6265534317
 C         2.0740148351       -2.2369850760        1.7852765073
 C         3.2610124109       -1.4238235550        1.1590199975
 C         4.7207186879       -1.3666299401        1.7629215836
 C         0.9962272580       -1.0907586640        1.9902719669
 C         2.5070718536       -3.1276828571        2.9851301148
 O         0.9193719724       -2.5301544088       -0.2972680632
 O         3.1208779764       -0.9517213536        0.0439164544
 C         5.8077121089       -1.2250090644        0.7003164755
 C         5.8582665769       -2.5072019858       -0.2837121458
 C         6.8579852492       -2.4590095839       -1.4743894337
 C         6.0064754403       -2.4659621768       -2.7983531968
 C         5.2743145239       -3.7442242592       -3.1751905870
 O         5.0914184506       -3.4213307446       -0.0053506201
 O         5.8634413730       -1.4911738062       -3.4614794920
 C         7.6782530509       -1.1704651398       -1.4310693246
 C         7.8119264883       -3.7024487621       -1.3630928372
 C         4.4111284421       -3.6320831783       -4.3864453745
 C         3.3979620583       -2.4123009910       -3.9548967968
 C         2.7510756151       -1.6303241945       -5.2266535748
 C         2.1227507381       -0.3496596930       -4.7626426869
 C         3.0238934880        0.9299132286       -4.6592394623
 C         3.9004535809       -1.3444602914       -6.2997117954
 C         1.7242773155       -2.5112383916       -5.8456821326
 O         3.0396231586       -2.3436236818       -2.8444490403
 O         0.9806928797       -0.3129086377       -4.3514176829
 C         2.2813178588        2.1296786754       -4.0908352800
 C         2.6147616928        2.3309191191       -2.5745061200
 C         3.5351952781        3.5559296235       -2.1520195169
 C         2.5360477369        4.8094851663       -2.0401806503
 C         2.5351456112        5.6699047782       -0.7424172210
 O         2.0175847858        1.6481600835       -1.7633040534
 O         1.8778308788        5.1302869327       -3.0039991437
 C         4.2787828004        3.2515162948       -0.8338923966
 C         4.4495603957        3.9461744774       -3.3753949011
 H        -8.0013155454        8.8528194143        5.1627820079
 H        -7.8214454405        7.7330516576        3.8679421668
 H        -8.9024577849        7.1050120901        5.1528493385
 H        -6.7812243560        4.3858257577        4.5828078727
 H        -5.7786593670        4.1260033740        5.9061428897
 H        -5.1770023423        6.7925477181        8.1093854310
 H        -4.9835180149        5.4595725505        7.0060883681
 H        -5.8710261144        5.3350160077        8.4789438494
 H        -8.9972474591        7.2809718911        7.4623699397
 H        -8.2470589801        6.3333480547        8.7517579746
 H        -7.6425305114        7.9099719234        8.3247252989
 H        -6.5995228519        2.0676447255        6.7847525374
 H        -8.1091800630        2.3126090211        5.8420294115
 H        -4.8153085325        1.6185883741        1.9369782335
 H        -5.0514285699       -0.2421401630        1.9356050390
 H        -6.2627606618       -0.7760336993        5.5572559233
 H        -5.0941920026       -0.5613133457        4.2431164239
 H        -6.4928905890       -1.5843758730        4.0336386560
 H        -8.4729782940       -0.9084031944        3.8177360909
 H        -8.7385531761        0.1490184277        5.2376105050
 H        -9.1463608093        0.7718332679        3.6267633162
 H        -5.4055414889        1.7580890270       -0.3943395956
 H        -6.3971904278        0.2805924816       -0.2133683581
 H        -2.7188948516       -0.9476241690       -3.5279969581
 H        -1.0149668354       -1.2116679474       -3.3973786246
 H        -3.5035760590        2.5195215889       -2.2891781947
 H        -4.7991362079        1.4644738512       -2.3922530546
 H        -3.4087428556        1.2014742746       -3.3587991302
 H        -1.8960604049        1.4497789565        0.6562317861
 H        -2.1322147738        2.5941427716       -0.6461036582
 H        -3.3300286956        2.4101845296        0.3946393598
 H        -2.0004688415       -2.1545736285       -0.9763673134
 H        -3.0226437586       -3.1089290095       -2.2235017145
 H         1.7914796628       -6.0994710462       -1.1559007044
 H         1.6506892791       -4.4376659078       -1.8997011300
 H        -2.4687654270       -6.5124087192       -1.1695987401
 H        -3.1372098591       -5.2440965831       -2.3903692847
 H        -2.7077152574       -4.9617981806       -0.5884411419
 H        -1.2302722453       -5.6990652375       -4.1238169227
 H         0.4204757928       -5.5402139080       -3.5919364698
 H        -0.6282135401       -6.9388575189       -2.9446532950
 H         3.1494882112       -4.3915580524        0.4353615466
 H         1.6828655070       -5.1247801409        1.1566125548
 H         4.7837435188       -0.4821813117        2.3878531740
 H         4.8385578322       -2.2144018538        2.4168327699
 H         1.1412671050       -0.3840271320        1.1426672323
 H         1.0649688125       -0.5656742545        2.9487855848
 H        -0.0629833628       -1.4302502585        2.0056747973
 H         3.1586319557       -2.6808389329        3.7058342464
 H         1.5883494940       -3.3342401457        3.5320305472
 H         3.0520280717       -3.9900064208        2.6141918963
 H         5.6506559225       -0.2449108003        0.1724265423
 H         6.8249736274       -1.1174071008        1.1844820407
 H         6.0165548045       -4.5044611679       -3.3479412566
 H         4.6648155992       -4.1429420423       -2.3392257754
 H         7.0070894612       -0.3270555752       -1.5845981150
 H         8.5643891084       -1.3142348243       -2.1019149451
 H         8.1586319558       -1.0677029150       -0.4541884727
 H         8.1812856317       -4.0836457367       -2.3464992715
 H         8.6234063732       -3.3245640835       -0.7281803658
 H         7.4016794950       -4.4739207298       -0.6930981992
 H         3.7692528854       -4.4952344193       -4.5280989325
 H         4.9712960819       -3.5134720940       -5.2758126666
 H         4.0084058682        0.8076841789       -4.1699969933
 H         3.4267274120        1.1101378056       -5.7640889970
 H         4.8037671230       -0.8940164568       -5.7792918819
 H         3.3374373989       -0.7032877785       -6.9774652257
 H         4.2110546682       -2.1935883363       -6.8469792792
 H         1.0481462124       -1.9994380491       -6.5961514196
 H         2.1650605061       -3.4473840936       -6.2474562067
 H         0.9273664542       -2.8037589067       -5.0314466439
 H         2.4848049441        3.0514555001       -4.6608075919
 H         1.1797697046        1.9379822991       -4.0435900808
 H         3.5526291798        6.0122944020       -0.4457028669
 H         1.8566865943        6.5164177643       -0.9147424489
 H         2.0545062869        4.9683982196       -0.0232484365
 H         4.6542725783        4.1972611268       -0.3245771519
 H         5.1548380677        2.5970503166       -1.0592271294
 H         3.6516447533        2.6687715694       -0.1635397691
 H         5.5039940254        3.7420878241       -3.0794940793
 H         4.2219675163        3.3790200132       -4.2886483435
 H         4.3387643850        4.9773955126       -3.4873865473
 Na        1.1586682637       -0.7981754534       -1.9201070251
