155

 C        -8.4417011907        7.7470029918        4.9787007502
 C        -7.2774194733        7.2195336850        5.7440452467
 C        -7.4417743660        6.3361280287        7.0226333985
 C        -7.7067065918        4.7927015896        6.7032149582
 C        -6.9884012400        4.1756163893        5.4901138762
 C        -6.1404984742        6.2951743839        7.9271697175
 C        -8.5487292239        6.8688145321        7.9536456697
 O        -6.1453698188        7.4017578146        5.2967940023
 O        -8.2613429937        4.0510809375        7.5039908474
 C        -7.6382981814        2.9059598778        5.0194712283
 C        -6.6896070837        1.9382338494        4.3456704613
 C        -7.1377081127        0.5961907007        3.7504078410
 C        -6.8068459159        0.6948062628        2.1802049385
 C        -5.3966230009        0.3791393673        1.7151554437
 O        -5.4650396249        2.0780438628        4.3549927445
 O        -7.7789463813        0.8600956530        1.4418285314
 C        -6.2117752656       -0.4373215316        4.5716429341
 C        -8.6567827959        0.2964472461        3.9054487302
 C        -5.2894001832        0.7126025324        0.1920062951
 C        -4.2493122975       -0.1648367027       -0.5675642409
 C        -3.1574602105        0.5529611812       -1.3527659132
 C        -2.0688273096       -0.3869994197       -1.9200345411
 C        -2.2833183235       -1.5671834602       -2.8655782291
 C        -3.6824590254        1.3238196702       -2.6112225144
 C        -2.4252376290        1.5700332298       -0.4288573671
 O        -4.3063223951       -1.3160299552       -0.3938995953
 O        -0.9312014827       -0.0735964470       -1.5761570338
 C        -2.3868176656       -2.9205151697       -2.0512744453
 C        -1.1333672772       -3.8090240647       -2.3239035814
 C        -1.1615800208       -5.3577599347       -2.0079815343
 C        -0.2756488196       -5.5096582426       -0.7639905077
 C         1.2771745607       -5.1904007778       -1.1601279581
 O        -0.2386273833       -3.2723963329       -2.9229018307
 O        -0.5640503549       -5.6050214688        0.4166762144
 C        -2.5727724442       -5.9001627036       -1.4655488284
 C        -0.6738486566       -6.1869204597       -3.1388126049
 C         2.0368792647       -4.3707090882        0.0132436871
 C         1.3473446719       -3.0373965913        0.3483324154
 C         2.0223229498       -1.8571477427        1.3206360100
 C         3.3615051364       -1.4488829535        0.7260655448
 C         4.6330334422       -1.4087077877        1.5334671832
 C         1.2688374216       -0.5157824787        1.4545311155
 C         2.1175192547       -2.5198878939        2.7424839366
 O         0.2610352901       -2.7698766069       -0.1263561640
 O         3.4775246657       -1.0580664816       -0.4431206660
 C         5.9378130698       -1.3601107539        0.7347861694
 C         6.2247760525       -2.5142482828       -0.0965054072
 C         7.2816017574       -2.3266007299       -1.2760388062
 C         6.4554881117       -2.2965537518       -2.5862939061
 C         5.5401767401       -3.4656622096       -2.9096917544
 O         5.8102758797       -3.6326913465        0.0932954884
 O         6.5467166170       -1.3165654180       -3.2865351988
 C         8.0109398524       -0.9725315443       -1.0858416192
 C         8.2391860190       -3.5681962934       -1.2575725224
 C         4.7246274881       -3.2311026321       -4.1689169477
 C         3.6396824554       -2.1786926775       -3.9817287628
 C         3.1794186210       -1.2530586617       -5.3043885693
 C         2.1514940836       -0.0955564827       -4.6852002046
 C         2.6882527604        1.3077500510       -4.8965253363
 C         4.4722725458       -0.7079319558       -5.8653040849
 C         2.3132093176       -2.1543085169       -6.2085103610
 O         2.9956195050       -2.1431647576       -2.9562322064
 O         1.1813871130       -0.3492923101       -4.0200361610
 C         2.1597320554        2.4650697366       -3.9109487151
 C         2.7565813833        2.2834281688       -2.5151409757
 C         3.4814532379        3.4928666628       -1.8433246664
 C         2.5245366216        4.7208799315       -1.7763597836
 C         1.9221592087        5.1369815721       -0.4014575012
 O         2.6560298898        1.2842173772       -1.8333553046
 O         2.1044205507        5.1630792804       -2.8455224107
 C         4.1983904882        3.0475045925       -0.5614333492
 C         4.5766038896        3.7851785285       -2.9376542168
 H        -8.6131895190        7.1252920018        4.0751951115
 H        -9.3420647483        7.8603758785        5.5218293291
 H        -8.0603330359        8.6816770417        4.6539511936
 H        -6.9283719491        4.7543310686        4.6461993590
 H        -5.9186406049        3.9212540565        5.8211748014
 H        -6.0171791819        7.2665069405        8.3702162773
 H        -5.1711712014        6.1960254794        7.4493787814
 H        -6.0796949503        5.4765151289        8.7107478594
 H        -9.5209425647        7.0317440927        7.5172628241
 H        -8.7389070178        6.2096531268        8.7539433721
 H        -8.2640555734        7.7824552859        8.4648492775
 H        -8.0694989617        2.4659449173        5.9131737702
 H        -8.5035340508        3.1516380527        4.3532875212
 H        -4.6410545300        0.8336812405        2.3362938708
 H        -5.2152668553       -0.6668889420        1.8107634550
 H        -6.1645398319       -0.2084482092        5.6003378792
 H        -5.1582066552       -0.3563337454        4.1806596484
 H        -6.6134277189       -1.3855562975        4.3416263983
 H        -8.9198982560       -0.7532287989        3.8256771696
 H        -9.1090235106        0.6870567839        4.8555602947
 H        -9.0009198657        0.7342056833        3.0009534842
 H        -4.9745485800        1.7320832302        0.0573170417
 H        -6.2016086068        0.4500979328       -0.3139761323
 H        -3.1633920718       -1.4793759961       -3.6216543597
 H        -1.3082636784       -1.6184282570       -3.3771878961
 H        -4.2312043083        2.1729778029       -2.2593234297
 H        -4.3314006553        0.7555064833       -3.3753357151
 H        -2.8218508648        1.6738600041       -3.0809047879
 H        -1.7277854870        1.1499725646        0.2720195739
 H        -1.7794291285        2.2747048319       -0.9943021334
 H        -3.2156349744        2.0335178614        0.1339167693
 H        -2.4556401096       -2.6477813689       -1.0275430311
 H        -3.2592938531       -3.4414359078       -2.3852577400
 H         1.7956976386       -6.1493215443       -1.1930854661
 H         1.4516792402       -4.7063439824       -2.1430558696
 H        -2.4303066946       -6.9679681751       -1.3082440030
 H        -3.2692964534       -5.9013333552       -2.2793393323
 H        -2.8933358394       -5.2588104224       -0.6318969175
 H        -1.6056175072       -6.7266701458       -3.6043347434
 H        -0.1325497948       -5.5768206747       -3.8249639957
 H         0.0321112694       -6.9828069768       -2.8596338645
 H         3.0294326790       -4.2828791331       -0.3673165604
 H         1.9898928599       -4.9024162262        0.9316331746
 H         4.6497103577       -0.4192857300        2.0541380005
 H         4.5920762615       -2.2403946586        2.2222476315
 H         1.4790696702        0.2644157146        0.7061083019
 H         1.3806368246       -0.0281866342        2.4886014447
 H         0.1980746853       -0.6985945785        1.3218154915
 H         2.9069347277       -1.9847456573        3.2972022038
 H         1.1633171418       -2.4495202022        3.1857785356
 H         2.3093729150       -3.5299828140        2.6421794063
 H         5.8389589460       -0.5441078464       -0.0211677939
 H         6.7120079508       -1.0898068999        1.2915047613
 H         6.1782621784       -4.3738630932       -3.0803747120
 H         4.8777842535       -3.6469696087       -2.1029958469
 H         7.3560541372       -0.1098857451       -1.3301092129
 H         8.9363893980       -0.7799786508       -1.7056439936
 H         8.2190779931       -0.8562779925       -0.0331196792
 H         9.1753996569       -3.3547795359       -1.6715970563
 H         8.3290859866       -3.8526403517       -0.1744297060
 H         7.8220004115       -4.4158030649       -1.8744083293
 H         4.0844435750       -4.0133486949       -4.5775880256
 H         5.3360247653       -2.9517494385       -5.0823582995
 H         3.7940672843        1.2330975366       -4.9256824901
 H         2.4278671199        1.5896439393       -5.8915123006
 H         5.1703537373       -0.2769398195       -5.1495125013
 H         4.2785310661        0.0856116555       -6.6313821398
 H         4.8103752325       -1.6013026334       -6.4296666079
 H         1.6238847284       -1.5110181673       -6.8000575924
 H         2.8282378122       -2.6884494071       -7.0174369551
 H         1.7213330849       -2.9075483149       -5.7154452478
 H         2.3426540928        3.5077720073       -4.2956237989
 H         1.0519544764        2.3609089974       -3.7118159033
 H         2.7408297560        5.6490163165        0.1976198419
 H         1.0781064014        5.8253029941       -0.6252025091
 H         1.5238177630        4.3239100401        0.1271331680
 H         4.8609725413        3.8345973139       -0.1092245210
 H         4.8357754823        2.1148477681       -0.8838205168
 H         3.5077269370        2.6678266870        0.2064349816
 H         4.0759193159        4.1285893978       -3.7960273367
 H         5.2822269161        4.5136016552       -2.5699083090
 H         5.0707657032        2.7793555727       -3.0742208937
 Na        1.5000010907       -0.8214698707       -1.7761296727
