155

 C       -10.2408931445        6.6268241188        5.8664520091
 C        -8.6587038225        6.8437570750        5.9488876577
 C        -7.7886762739        5.9326202563        6.9150360473
 C        -8.0182654119        4.3547650870        6.7502575793
 C        -7.1539851048        3.4368928959        5.7802098305
 C        -6.2803082730        6.3633649966        6.6871268557
 C        -8.1404671530        6.2644692462        8.3789898283
 O        -8.0938609203        7.5310758163        5.1062579701
 O        -8.9791048542        3.8801404322        7.3511448035
 C        -7.9534945618        2.9142769265        4.5606567823
 C        -7.1200011335        2.3820354845        3.3044056856
 C        -7.6130224380        0.9309897304        2.8179188291
 C        -6.9706385136        0.7642024649        1.3747347547
 C        -5.5000368111        0.2503816073        1.2776473788
 O        -6.1665945105        2.9916687828        2.8918622122
 O        -7.5609024696        0.9866088473        0.3524873269
 C        -6.8977748868       -0.0183883995        3.8731642922
 C        -9.1139593272        0.8074198364        2.6314019379
 C        -4.9978052240        0.3125475724       -0.1576422532
 C        -3.6350608054       -0.3677865116       -0.2955174884
 C        -2.6849870828        0.3312322639       -1.5025734084
 C        -1.4336545058       -0.5563581821       -1.8883336053
 C        -1.7399392347       -1.7254288607       -2.6624575604
 C        -3.3615540185        0.8215702899       -2.7959869612
 C        -2.2157062191        1.6012349431       -0.8449951613
 O        -3.3263390360       -1.2183774621        0.4506538514
 O        -0.3405178419       -0.1742057162       -1.5773832626
 C        -1.7304288050       -3.2117438027       -2.1505065049
 C        -0.5011686402       -3.9668957224       -2.3608704785
 C        -0.4553997325       -5.4925921136       -2.0640905252
 C        -0.0363195637       -5.5729539962       -0.4437608429
 C         1.5110201170       -5.3135185794       -0.0528988716
 O         0.5006369257       -3.3866568600       -2.8558743375
 O        -0.8947585388       -5.9518955971        0.2901033399
 C        -1.7506329785       -6.1574882155       -2.0830088251
 C         0.5149130851       -6.2143185189       -2.9381405942
 C         1.6022754264       -4.5538288976        1.2973805724
 C         1.0019757725       -3.1670210127        1.2174463569
 C         1.7655612528       -1.9062610139        1.7403857601
 C         2.9177134675       -1.7771439582        0.7027197210
 C         4.2918496444       -1.2728943040        1.1906680986
 C         0.8839583755       -0.6277498376        1.6780113820
 C         2.3299034898       -2.2169889502        3.0776740459
 O         0.0686350738       -2.9644285631        0.4285477489
 O         2.6395855650       -2.1221248436       -0.4295459424
 C         5.1923781853       -1.0559147547        0.0148911664
 C         6.1401087963       -2.3393478191       -0.1881398811
 C         7.2788846421       -2.0624750218       -1.2273642271
 C         6.5380072084       -1.7044070358       -2.6099295225
 C         6.0005726800       -2.9165301512       -3.3821797875
 O         5.9799843378       -3.3366252662        0.4106043947
 O         6.3330358099       -0.5802894756       -3.0068455032
 C         8.1786445514       -0.8599831456       -0.9153824486
 C         8.2523435440       -3.3055278115       -1.3717082763
 C         5.4235595611       -2.5178271503       -4.7015275328
 C         4.1116641315       -1.7241155540       -4.5038480313
 C         3.8090011948       -0.6242272682       -5.4979606903
 C         2.8932396538        0.4616807239       -4.6708422694
 C         3.4918496765        1.7770623605       -4.2976675143
 C         5.0266897863        0.0541486181       -6.0659345882
 C         3.0496700389       -1.3315948884       -6.5024981282
 O         3.4034116403       -2.0357371865       -3.5886826169
 O         1.7909894801        0.0821463343       -4.3879849616
 C         2.5657235086        2.4786769348       -3.2793820143
 C         2.9546386373        2.1790141895       -1.8019120646
 C         3.1565416054        3.3700132661       -0.9327221162
 C         1.8487285371        4.1845152467       -0.9288896637
 C         0.4450646352        3.7604734062       -0.4068248625
 O         2.9992958354        1.0246810259       -1.3979900660
 O         1.9163229362        5.2239203420       -1.5356734115
 C         3.6074718411        2.8893208492        0.4876887475
 C         4.2958769837        4.3035173981       -1.3734745638
 H       -10.5525792737        5.5954697013        6.0019490577
 H       -10.6495473669        7.2038220564        6.7058213431
 H       -10.6155934194        7.0430471810        4.9703722835
 H        -6.4308291315        4.0462700214        5.3317955238
 H        -6.7317477110        2.5542736332        6.1989333667
 H        -6.2695539057        7.4279176520        6.4426356770
 H        -5.7758166074        5.8619878275        5.8769480535
 H        -5.7575058992        6.1623703849        7.5506546234
 H        -8.9015194166        5.5635871302        8.7813354577
 H        -7.2047449598        6.2487374836        9.0319229059
 H        -8.5432222856        7.2769900137        8.3844795306
 H        -8.6465027694        2.0323279996        4.8116641218
 H        -8.6176214177        3.6660125795        4.1420037876
 H        -4.9037637011        0.8808923310        1.8999899091
 H        -5.4284565744       -0.7401645429        1.6651952082
 H        -7.4207021441        0.0221888113        4.8631569959
 H        -5.8868602037        0.2440105256        3.9200371956
 H        -6.9819090662       -1.0560875218        3.5458240838
 H        -9.4698837080       -0.2267703230        2.5121800719
 H        -9.6907234311        1.0966756150        3.4889357432
 H        -9.4890043689        1.3149668898        1.7295925045
 H        -4.9907186900        1.3275015928       -0.3937032409
 H        -5.6706637196       -0.3468532086       -0.7096901142
 H        -2.7141235202       -1.6217228880       -3.0021803275
 H        -1.0998349649       -1.6816767586       -3.6000741155
 H        -4.4169351087        0.4800731917       -2.8144960652
 H        -2.8496138454        0.5007498937       -3.6624110941
 H        -3.4996193001        1.9092125246       -2.8350862954
 H        -1.7344477405        1.3047540023        0.0542191826
 H        -1.5447217586        2.1135537260       -1.4821443727
 H        -3.0853599748        2.2124173638       -0.5998191016
 H        -1.9723350199       -3.2613631281       -1.1229332506
 H        -2.6092942778       -3.7096161135       -2.7670420222
 H         1.8989506150       -6.2942689404        0.0604183263
 H         2.0786162203       -4.7744517468       -0.8393495912
 H        -1.5353372084       -7.2443392316       -1.8653211159
 H        -2.0777087346       -6.1209015665       -3.1854765306
 H        -2.5439416827       -5.7124188924       -1.4352151440
 H         1.4170777373       -5.4663285987       -3.1204908870
 H         0.8275311047       -7.2172190295       -2.6056269337
 H         0.0239774058       -6.4345938871       -3.8794066868
 H         2.6238052771       -4.5673171782        1.5529243792
 H         1.1064769200       -5.0270264412        2.1929951627
 H         4.1750865692       -0.3830353676        1.8400154885
 H         4.6005154560       -1.9983796197        1.9212619663
 H        -0.1300652395       -0.8191229050        2.0211209659
 H         0.6744509902       -0.3284084277        0.6875003294
 H         1.2886133032        0.2155222466        2.2932309863
 H         2.6903313685       -1.3647971146        3.5743713629
 H         1.5299611461       -2.5524227861        3.7549197329
 H         3.1423582114       -2.9879075869        3.0709877453
 H         4.6213596657       -0.9267427735       -0.8378351209
 H         5.7884965990       -0.0782577904        0.2085009942
 H         6.7050356420       -3.7578871329       -3.3617425001
 H         5.2504256141       -3.3418626485       -2.6693008256
 H         7.5954723668        0.0224195475       -0.6715108520
 H         8.7566320632       -0.5577072133       -1.7304067444
 H         8.8500022725       -1.2095836693       -0.1073302225
 H         9.0765343789       -2.9577864243       -2.0362090597
 H         8.7297150859       -3.5979084061       -0.4149079911
 H         7.6870672207       -4.1596689782       -1.8001672637
 H         5.1499670229       -3.2949229411       -5.4704097686
 H         6.2146455446       -1.9364011840       -5.1402514817
 H         4.4371383447        1.6694413578       -3.8969990025
 H         3.6768455627        2.3561176410       -5.2133217870
 H         5.7658292827        0.2576272871       -5.3374039070
 H         4.9795775907        1.0152472053       -6.5662192634
 H         5.5392393328       -0.5587375712       -6.7975098194
 H         3.2353536000       -1.0782135982       -7.5044310862
 H         3.0776197060       -2.3936583779       -6.4228850130
 H         1.9308248413       -1.2965612792       -6.4244099523
 H         2.7882996003        3.5580434781       -3.5473472785
 H         1.4737903262        2.2045790954       -3.3466103208
 H         0.2842023932        4.4188504965        0.4179305181
 H        -0.3771337156        4.1007252011       -1.0848241216
 H         0.1242022575        2.7089028277       -0.1461220703
 H         4.1832715840        1.9836340820        0.3936938671
 H         2.7598826204        2.7264539942        1.1802957038
 H         4.2010597892        3.7183530345        0.9205701432
 H         4.0895691392        5.0531861419       -2.1465995204
 H         4.5810921228        4.9051611955       -0.5248070645
 H         5.2087193128        3.7983106279       -1.5859482585
 Na        1.7749620297       -1.1687183420       -2.3598049354
