155

 C        -9.4957027255       -6.2124341096        0.4286721968
 C        -8.7799407311       -5.6225420981        1.5911927933
 C        -7.8947191382       -4.3651361168        1.5344290198
 C        -6.3295399281       -4.7666213436        1.2338180946
 C        -5.5783614796       -5.4844087413        2.3411889361
 C        -8.4364562040       -3.2798333796        0.5114048908
 C        -7.9516108276       -3.6279459834        2.9584942790
 O        -8.9465458471       -6.1297278993        2.7179325451
 O        -5.8189606630       -4.3565054024        0.2172762042
 C        -4.0901283427       -5.2552977705        2.3713779942
 C        -3.6145712270       -3.8880659374        2.8683037397
 C        -2.0969565625       -3.5654360189        2.7705675361
 C        -1.8172126172       -3.4336981447        1.2532066790
 C        -2.7396707146       -2.5882691384        0.3506910691
 O        -4.3932962337       -3.1137740956        3.2932995347
 O        -0.9955140853       -4.1679575439        0.6860237456
 C        -1.7632584819       -2.2631934406        3.5643364322
 C        -1.1082566956       -4.5896977647        3.3754033094
 C        -2.2247691390       -2.5313987181       -1.1079807890
 C        -1.1386578090       -1.4735939465       -1.4059255652
 C         0.3150072105       -1.8550800344       -2.0910593127
 C         0.1661209906       -1.1702063812       -3.4777092910
 C         0.1401560782       -1.9613062052       -4.8042921572
 C         1.4113285804       -1.1220943524       -1.2072973679
 C         0.4900994858       -3.3951639630       -2.0597247198
 O        -1.3535237896       -0.3248578895       -1.0033908316
 O         0.2012027215        0.0656728922       -3.5664440169
 C        -0.3884572743       -1.0913600250       -5.9328067379
 C        -2.0127610986       -1.1306105267       -5.9465451617
 C        -2.7241629217       -0.0624315000       -6.8844656001
 C        -3.3202392720        1.0824616349       -5.8284339296
 C        -4.6110483633        0.7040746922       -4.9759864172
 O        -2.6416258974       -1.9827601711       -5.3563902931
 O        -2.8904831894        2.1818275214       -5.6019211854
 C        -1.8613570715        0.5949624897       -7.9458769864
 C        -3.9186245086       -0.7623048828       -7.6159761966
 C        -5.1476349764        1.8150488074       -4.0963310583
 C        -4.0297808502        2.3428412066       -3.2383284984
 C        -4.1769947915        3.7175702126       -2.5811196032
 C        -2.6397558425        4.1853579061       -2.1231780418
 C        -2.0580091557        5.4859479855       -2.6917753604
 C        -4.8555629735        4.8123538581       -3.5224008601
 C        -4.8642713214        3.6081621114       -1.1851871646
 O        -3.1364112173        1.5464266485       -2.9465931105
 O        -1.9613257055        3.3367847005       -1.5491810802
 C        -0.7597396840        5.9642619597       -1.8726887791
 C         0.1404600035        4.6790681767       -1.6037105979
 C         0.7249336696        4.4139142710       -0.1420901216
 C         1.2781936229        2.9846843741        0.1484938448
 C         2.0034834248        2.7804314187        1.5371074256
 O         0.6283902676        3.9891392304       -2.4843426991
 O         1.2613151993        2.0809483067       -0.6616932911
 C         1.8622479792        5.4711339712        0.1964239908
 C        -0.4839328184        4.6072371559        0.8158633239
 C         3.5880470044        2.5974013251        1.1940370797
 C         4.0466874032        1.0756019620        1.0307102325
 C         5.4594045683        0.7349998406        0.7881812737
 C         6.1849473411        1.1298420795        2.3116987185
 C         6.8483487150       -0.1037447583        2.9571872488
 C         5.6946689821       -0.7166136849        0.3674032417
 C         6.2410023504        1.6055849908       -0.2405332579
 O         3.2437563287        0.1386197104        1.2106473799
 O         6.3587701249        2.2326877715        2.7563386330
 C         7.1001441079        0.1715298701        4.4032601238
 C         8.5009528934        0.6742993382        4.7226478026
 C         8.9870977525        1.0034646013        6.2609718023
 C         8.4797420279        2.3922361579        6.7276216646
 C         8.5978996559        3.4717857995        5.7087296864
 O         9.3643295612        0.7300314635        3.8685194747
 O         8.0435313846        2.6579024984        7.8655612281
 C         8.4434309182       -0.1068222883        7.1339076598
 C        10.5407340546        1.0711837947        6.1865310834
 H        -8.8230100614       -6.6624945437       -0.3117551752
 H       -10.1625949863       -6.9828259641        0.8147113604
 H       -10.1321422570       -5.4983089618       -0.1554588151
 H        -5.8902264393       -5.1762464993        3.3318593455
 H        -5.8540194246       -6.5131151892        2.2638685330
 H        -7.9364636926       -2.3653428914        0.7139879339
 H        -9.4932909582       -3.1157855130        0.5018206075
 H        -7.9672907861       -3.4931733463       -0.4704367489
 H        -8.0754017425       -2.5991267651        2.9466827910
 H        -8.7870439093       -4.0124326047        3.6132521713
 H        -7.0090564832       -3.8399425086        3.4810650215
 H        -3.7998953534       -6.0523190475        3.1584238751
 H        -3.5579434986       -5.2866324904        1.4206673239
 H        -3.7760739528       -3.1070478704        0.2976880622
 H        -2.8483804471       -1.5922753460        0.7830971380
 H        -0.7386443248       -2.0155623840        3.4431491130
 H        -1.8807706873       -2.2935154966        4.5661902047
 H        -2.4481016365       -1.4847151388        3.2159825129
 H        -1.5386133520       -5.0512725327        4.2816123628
 H        -0.8265979487       -5.3576922938        2.6623189913
 H        -0.1926585902       -4.1071010058        3.5566276228
 H        -3.0811467181       -2.4445493792       -1.8088276177
 H        -1.7817006061       -3.5479649431       -1.3118065852
 H         1.1829511916       -2.0262920215       -5.0125488853
 H        -0.3992550808       -2.9063653178       -4.8472704931
 H         2.4078820062       -1.2633298057       -1.5146036447
 H         1.4537242530       -1.5475609052       -0.2580391077
 H         1.3155897617       -0.0538409530       -1.2183052062
 H         0.4033135913       -3.8063785726       -1.0078570668
 H        -0.2022746004       -3.9328837514       -2.6642736281
 H         1.4975898338       -3.6108328434       -2.5606813167
 H         0.0235004459       -0.0072645636       -5.8461033794
 H         0.0674985094       -1.3808819847       -6.8696273374
 H        -5.4959906490        0.5576308281       -5.6560282435
 H        -4.5378545796       -0.3028452938       -4.4119728306
 H        -1.3802021147        1.4916631597       -7.5351136679
 H        -2.3647253829        1.0711960327       -8.8121521141
 H        -1.1614855738       -0.1556384305       -8.3351661083
 H        -4.4960156255       -0.0856181893       -8.2574015376
 H        -3.3832954663       -1.4664245656       -8.2736000459
 H        -4.5458692762       -1.2877041154       -6.9039181159
 H        -5.9498740786        1.4604731494       -3.4694779985
 H        -5.5666842221        2.4709462215       -4.8029269475
 H        -1.6541695225        5.1768840472       -3.7136687155
 H        -2.7837536869        6.2628115422       -2.8868722617
 H        -4.2851521113        5.0964248941       -4.3606582558
 H        -5.0211064839        5.7172073288       -3.0248947619
 H        -5.8903285945        4.4638109483       -3.7960428671
 H        -4.4411660565        4.2917274883       -0.4727453907
 H        -5.9655758003        3.5938252323       -1.3314717591
 H        -4.6718696200        2.6526526986       -0.7566091082
 H        -0.1296542140        6.5607211833       -2.4704856930
 H        -1.1437084869        6.4937197185       -0.9746469292
 H         1.9027314704        3.6011358332        2.2924789178
 H         1.7245739679        1.7521651861        1.9863887699
 H         1.5166253878        6.4471341108       -0.0725379113
 H         2.7780106723        5.3460084527       -0.2106742126
 H         1.9451796920        5.5424623873        1.2787279356
 H        -0.2321803105        4.1854826729        1.8510118427
 H        -0.8789366442        5.6405531897        0.9135938090
 H        -1.3194935429        4.0125634353        0.4356677521
 H         4.1263385241        2.9213484987        2.0208339950
 H         3.7901991146        3.1728750147        0.2523686413
 H         6.1614186975       -1.0119334689        2.9599117547
 H         7.8364913259       -0.3088364450        2.4111186270
 H         5.1278650705       -1.2776361310        1.1156685902
 H         6.7340028051       -1.0074291885        0.5448529473
 H         5.3256605622       -0.7861975371       -0.6733082754
 H         7.1307158159        1.0965031840       -0.4700420556
 H         5.6163346378        1.7719630208       -1.1106332146
 H         6.3855792065        2.6321491575        0.2608265788
 H         6.4812724255        1.0390033890        4.6055776958
 H         6.9400298007       -0.7447425856        4.9938798110
 H         8.6369571610        4.4632265586        6.1641385650
 H         9.4334370824        3.2759293617        5.0035635314
 H         7.6752819692        3.4976281011        5.0636747447
 H         9.0652751637       -0.0361108065        8.0271295914
 H         8.5662959438       -1.0889021548        6.7167609386
 H         7.4418060089        0.0873974174        7.4107384293
 H        10.9164311563        1.3301981127        7.1645662742
 H        10.9448334657        0.1907340848        5.6613093869
 H        10.7253503205        1.9183700476        5.5508267319
 Na       -0.8302128727        1.4869467870       -1.9725770875
