155

 C       -10.3230555200        6.7269157311        6.6533163410
 C        -9.0779836924        6.4541629860        5.8812797090
 C        -7.8086813126        5.6676617349        6.5647974148
 C        -7.8360733936        4.3237991573        5.9413480396
 C        -7.3334464257        4.0512578667        4.5226115093
 C        -6.4466906219        6.4158921925        6.3026712142
 C        -8.0443453930        5.4710435153        8.0907114596
 O        -9.0419347979        6.8048676102        4.7429791622
 O        -8.2795155578        3.3955840980        6.5968817184
 C        -7.9703959789        2.7705291238        3.9757849992
 C        -7.1041731362        1.9837121064        3.0230910517
 C        -7.7235203781        0.6385861986        2.3539243306
 C        -7.0593730235        0.4107005032        0.9356622831
 C        -5.5904457035       -0.1429183517        0.9860281124
 O        -5.9321213029        2.2595480645        2.7723237487
 O        -7.5789170366        0.8397255072       -0.0755232606
 C        -7.3327701438       -0.5104811424        3.3339091297
 C        -9.2148686214        0.7583504543        2.2034355782
 C        -4.7825142933        0.4599468778       -0.1966163294
 C        -3.5866796969       -0.3117087408       -0.6262214184
 C        -2.5885377630        0.4972435809       -1.5928443870
 C        -1.3837614471       -0.3693379766       -1.9268578223
 C        -1.4334150295       -1.5418766555       -2.8401494040
 C        -3.4199345275        0.8089770598       -2.8619725894
 C        -2.0392942794        1.8397757164       -0.9560724778
 O        -3.5087499032       -1.5310162234       -0.3629304438
 O        -0.3395657919        0.0559824075       -1.4822899297
 C        -1.7581572462       -2.8952145883       -2.1286286357
 C        -0.4188260751       -3.7055057167       -2.1356262375
 C        -0.3199823808       -5.3205410448       -1.9549196775
 C         0.2356954583       -5.5291568356       -0.4574964333
 C         1.6450193716       -4.9295534153       -0.1082921422
 O         0.7253562791       -3.1945660927       -2.2794515714
 O        -0.2960070344       -6.3057456287        0.2672527475
 C        -1.6832318599       -5.9497692519       -2.0569038555
 C         0.6362394996       -5.9616434373       -2.9701643469
 C         2.0045038093       -4.4396827801        1.3299279087
 C         1.1432272241       -3.1797253684        1.3781987441
 C         1.8385031734       -1.8460611532        1.8295974567
 C         3.1431634114       -1.6663455545        0.9706411621
 C         4.4512638092       -1.3641082037        1.7035597941
 C         0.8853712590       -0.6665637901        1.5841531751
 C         2.2543013646       -1.9678495100        3.4028529548
 O         0.0073273581       -3.1675348764        1.0573396362
 O         3.0791782097       -1.6156212448       -0.2635490419
 C         5.5416855512       -0.9496475043        0.7384902501
 C         5.8569052616       -2.1236763320       -0.2113434379
 C         7.0492887829       -1.7573809979       -1.2342617145
 C         6.3240376357       -1.6695928968       -2.6263090065
 C         6.1015880690       -2.8757292070       -3.4800253506
 O         5.3837647153       -3.2611526894       -0.3361041296
 O         5.8585700858       -0.5921466161       -2.9734621649
 C         7.7200608159       -0.3815864751       -1.0565160533
 C         8.0945917282       -2.9443780223       -1.2664070864
 C         5.2954840777       -2.6289928856       -4.7287495799
 C         4.0261358767       -1.8668716378       -4.4160574732
 C         3.6270750235       -0.6638525680       -5.3692088201
 C         2.9559362478        0.4515775130       -4.3911157904
 C         3.7518375187        1.6685843736       -3.8749317150
 C         4.7344603587        0.0327291893       -6.2254968289
 C         2.4908747801       -1.2812117438       -6.1915858370
 O         3.3349419897       -2.1042611728       -3.4403715341
 O         1.8155461670        0.2352967341       -4.0453451702
 C         2.8446749906        2.6846232138       -3.1565216726
 C         2.7911645489        2.3183180971       -1.5783375300
 C         3.2375907296        3.3893938395       -0.4868818531
 C         2.1657577491        4.4232441444       -0.4125487389
 C         1.0899524556        4.2209226930        0.6275986964
 O         2.5369856471        1.1894875524       -1.2072094600
 O         2.0689736378        5.2619741645       -1.2901400771
 C         3.4141683529        2.6685978068        0.9026059514
 C         4.6180676388        3.8816952268       -0.8919668431
 H       -10.8631165374        5.9278355137        7.2830790523
 H        -9.9558342320        7.4367399798        7.3767026624
 H       -10.9916484880        7.4001728717        6.0343721833
 H        -7.5439101804        4.8853795174        3.9274894141
 H        -6.2334102603        3.8903613363        4.6856337939
 H        -6.6350790251        7.4729047184        6.5230089895
 H        -6.2589231624        6.2393626742        5.2211654569
 H        -5.6495773863        6.0439524214        7.0368909949
 H        -8.8567830670        4.8115078011        8.1756344409
 H        -7.1744311814        4.9238849528        8.4835060657
 H        -8.2117911652        6.3925026181        8.5654578508
 H        -8.2579051944        2.0921068428        4.9088790944
 H        -8.8927855528        3.0183895202        3.4075662938
 H        -5.1499072872        0.2252769997        1.9121107129
 H        -5.5690640147       -1.2443905246        1.0808394989
 H        -7.6072321779       -0.3274846994        4.3578825832
 H        -6.2658332229       -0.6525825405        3.3861048808
 H        -7.7259586475       -1.4813144141        2.9677517104
 H        -9.5765844772       -0.2348569734        1.9530275109
 H        -9.7890732901        1.1724957238        3.0568240735
 H        -9.5564392119        1.4056922495        1.4584203991
 H        -4.5783575322        1.5288126087       -0.1590201312
 H        -5.4621347409        0.2595512733       -1.1343550473
 H        -2.1654340313       -1.4496979384       -3.6680639748
 H        -0.4068621826       -1.6620603346       -3.2561885698
 H        -4.2586149954        0.0985069414       -3.0738980030
 H        -2.8540804867        0.5677571495       -3.7759022751
 H        -3.7197426886        1.7993426865       -2.9408173867
 H        -1.5609899840        1.6561253278        0.0446830245
 H        -1.2382963235        2.3768990819       -1.5472592997
 H        -2.9335803186        2.5518990615       -0.7936765330
 H        -2.0849917854       -2.7258474506       -1.0939328677
 H        -2.5917820998       -3.5016686896       -2.7001612901
 H         2.3467293984       -5.7398784268       -0.3968741690
 H         1.8619911445       -4.0348640914       -0.7526526030
 H        -1.7277764959       -7.0123714846       -1.8623997755
 H        -2.0115317815       -5.8036071011       -3.0724839836
 H        -2.4735967786       -5.4763591413       -1.4856973469
 H         1.0592383823       -5.1238047778       -3.4604744016
 H         1.3967519467       -6.5806078402       -2.5216714245
 H        -0.0130626146       -6.4671023249       -3.7512372246
 H         3.0618677539       -4.3526726678        1.2889500742
 H         1.6747749996       -5.0703563372        2.1196613089
 H         4.2867275987       -0.6885128040        2.5654223893
 H         4.7990858189       -2.2967966249        2.1083756016
 H         0.0684096313       -0.7910340628        2.2756905387
 H         0.4481169010       -0.6463352315        0.5564052220
 H         1.3538001133        0.3462918935        1.6623925302
 H         2.2019460236       -0.9731203754        3.8155825625
 H         1.5546026173       -2.5878730164        3.9153110223
 H         3.2121036457       -2.3983527495        3.6886439442
 H         5.1021712950       -0.0359994863        0.0995111087
 H         6.4373016707       -0.5544579425        1.2403422760
 H         7.0778875239       -3.1859993269       -3.6846532751
 H         5.5560409447       -3.6124125564       -2.8829184932
 H         6.8676075242        0.3072949693       -0.9470292096
 H         8.2483400775       -0.1636592952       -1.9732231962
 H         8.3796791677       -0.3228278619       -0.1640238524
 H         8.5941923409       -2.9241148876       -2.1628106082
 H         8.8073005929       -2.7837160334       -0.4429157552
 H         7.5396000931       -3.9047340695       -1.2547133329
 H         5.0099332822       -3.6740905041       -4.9907664836
 H         5.8868504075       -2.1972869185       -5.4691344864
 H         4.6412190252        1.5032554658       -3.2921134076
 H         4.0439693416        2.1033234171       -4.8787939139
 H         5.5287585690        0.4637488313       -5.6406846325
 H         4.4111658555        0.7192530400       -7.0361202541
 H         5.3165558255       -0.7716371146       -6.8111240215
 H         2.2444595000       -1.0053584111       -7.2597672895
 H         2.6626296473       -2.3226448384       -6.4206326432
 H         1.5458617951       -1.1109627671       -5.7133201854
 H         3.2595889555        3.6879740904       -3.4053873103
 H         1.8574214676        2.6656391844       -3.6356006989
 H         1.5738258021        4.3320492290        1.5881446154
 H         0.2621142170        4.9214601979        0.5626411632
 H         0.6885620774        3.2553276456        0.7627056088
 H         3.3465416729        3.4143344311        1.6792932162
 H         4.4473855898        2.1955485211        0.8377148237
 H         2.6979503968        1.9361421051        1.0561472018
 H         4.6028482903        4.5496422128       -1.7428899567
 H         5.1053296044        4.4413538600       -0.1186284052
 H         5.3282038122        3.0878953309       -1.2799639437
 Na        1.6971879642       -1.1060448422       -1.9419156415
