155

 C       -10.2971635378        6.8667560785        6.8523030536
 C        -9.1599993663        6.3942759291        5.9479276637
 C        -7.9562931471        5.6206034464        6.4940189329
 C        -7.9396412542        4.1407491889        5.8774943940
 C        -7.4349932392        3.9564455016        4.4892968832
 C        -6.6863440497        6.4788625184        6.0540533531
 C        -7.9922318325        5.6530513235        8.0723335671
 O        -9.1050552994        6.8402986962        4.8034313747
 O        -7.9772463989        3.1288732144        6.5561946626
 C        -8.0892779977        2.8027231709        3.7561089235
 C        -7.0917824789        1.8208785611        2.9815324174
 C        -7.8324658205        0.5986872349        2.3353917292
 C        -7.1665672258        0.3731062253        0.7943635766
 C        -5.6171865678        0.0168529332        0.7158350439
 O        -5.9165176420        1.9809514723        2.8957051097
 O        -7.8390083644        0.4433755229       -0.1745113298
 C        -7.4907688929       -0.6786031360        3.1801268131
 C        -9.3488338166        0.6366583650        2.1960566402
 C        -4.8969461599        0.6762331041       -0.4147771521
 C        -3.5851956896       -0.1386673564       -0.7899632530
 C        -2.5823685515        0.5763407051       -1.7543963533
 C        -1.4078963965       -0.2985126415       -2.0286405351
 C        -1.4920421509       -1.4696297378       -2.9931304581
 C        -3.3358387029        0.9499512844       -3.0758984056
 C        -2.1671811493        1.8476320614       -0.9325304042
 O        -3.6117498857       -1.2795410723       -0.4923603224
 O        -0.3129637558       -0.0746041115       -1.4724013707
 C        -1.5620632712       -2.8229812543       -2.1327539640
 C        -0.1342893466       -3.6228698645       -2.1066626656
 C        -0.2408096303       -5.2195419619       -1.7907565774
 C         0.5323541693       -5.5260275313       -0.4433242327
 C         1.9135470314       -5.0975160205       -0.2555140094
 O         0.9208056487       -3.1662600359       -2.3851362981
 O         0.0474009075       -6.2411007578        0.4147457494
 C        -1.6422282410       -5.8339119576       -1.7052105796
 C         0.7487521489       -5.9151198512       -2.8908478985
 C         1.9061466705       -4.5161923872        1.2255706489
 C         1.1273282227       -3.1465244168        1.2466636640
 C         1.7525703763       -1.8539007627        1.9790624201
 C         3.1558757484       -1.6613269251        1.1730808606
 C         4.5694536411       -1.5758404852        1.8698261082
 C         0.8197026789       -0.6424232954        1.7746036082
 C         1.9923862442       -2.0382747051        3.4706202897
 O        -0.0542675109       -3.0350825102        0.7999635122
 O         2.9445694632       -1.5107479784       -0.0163260796
 C         5.6988189638       -1.0790200143        0.9286824178
 C         6.0293352775       -2.1337113134       -0.2101754198
 C         7.1460759998       -1.6624765426       -1.3278388052
 C         6.3597150437       -1.5752214215       -2.6328667961
 C         6.2025383580       -2.8526860280       -3.5323338083
 O         5.5472023128       -3.1991967357       -0.3909818893
 O         5.6598079440       -0.6446731483       -2.9703010367
 C         7.8662520904       -0.3267679492       -0.9892145802
 C         8.2604947221       -2.7751925409       -1.2835955385
 C         5.1001217840       -2.7120337166       -4.6975412858
 C         3.8921626730       -1.7839702624       -4.2892589136
 C         3.4962094878       -0.5674734010       -5.2363726854
 C         2.7835751039        0.4812901231       -4.3648799350
 C         3.7111923937        1.6165030975       -3.8780585099
 C         4.7008356118       -0.2063861776       -6.1545593409
 C         2.3575943955       -1.1151796917       -6.2501771720
 O         3.3459216060       -2.1269353402       -3.2573661894
 O         1.5857366541        0.4880962433       -4.0869057149
 C         2.8647085528        2.5401467485       -2.9212344057
 C         2.8649616987        2.1089667566       -1.5028834755
 C         3.3251500211        3.2125483498       -0.4019809147
 C         2.1268097178        4.4119828874       -0.3718321720
 C         1.2068230156        4.5764584674        0.7598105670
 O         2.5686904018        0.9613662952       -1.2012371445
 O         2.1552496855        5.2468913043       -1.2489297692
 C         3.4652290762        2.4009911716        0.9501964792
 C         4.6484019682        3.8395595852       -0.8823749715
 H       -10.7803672340        6.0149987497        7.2525538267
 H       -10.1052084442        7.5294647938        7.7512645352
 H       -11.0138475934        7.3625233222        6.2582707598
 H        -7.5417576685        4.8935482197        3.8740663268
 H        -6.3765779729        3.8446334838        4.6336752426
 H        -6.9735768271        7.5073339538        5.8717576933
 H        -6.3465830371        6.0849123441        5.1415197254
 H        -5.9942688769        6.3638419685        6.7893574003
 H        -9.0663723901        5.6572858401        8.3441703636
 H        -7.5000438812        4.7934966222        8.4709546192
 H        -7.5226603752        6.5906988125        8.4208668209
 H        -8.6495490062        2.1660292919        4.3715714375
 H        -8.7688964388        3.3095867848        3.0520826152
 H        -5.1001912109        0.3176930385        1.6439072696
 H        -5.7247794523       -1.0501063516        0.6164828058
 H        -8.0134963357       -0.5267492970        4.1556794288
 H        -6.4899668389       -0.9389074211        3.4709369357
 H        -7.9520537865       -1.5159163192        2.7154653982
 H        -9.7782434318        0.1100241670        1.3401266512
 H        -9.8311587329        0.2797215423        3.0727968887
 H        -9.7662410782        1.6893583474        2.2012019350
 H        -4.6956544263        1.7478987615       -0.1896162901
 H        -5.6016717066        0.7229152922       -1.2266896609
 H        -2.2910805656       -1.4802846905       -3.6902046745
 H        -0.5356951956       -1.5320112406       -3.5034832617
 H        -3.6291712894        0.2458790382       -3.8336093459
 H        -2.7497692103        1.5989763765       -3.6755082609
 H        -4.2236310884        1.5405815208       -2.7761178308
 H        -1.1679910639        1.7846374220       -0.5379251246
 H        -2.0115457164        2.5515548043       -1.7116672890
 H        -2.8005007338        2.2385400643       -0.1548057639
 H        -1.6791856266       -2.6428942414       -1.0464841832
 H        -2.3938194125       -3.4264697516       -2.3953068366
 H         2.5266111862       -5.9915082344       -0.3476937554
 H         2.2468883382       -4.3716805939       -0.9779618457
 H        -1.5053238203       -6.9274610122       -1.8422596496
 H        -2.3792848396       -5.6679010023       -2.5130657942
 H        -2.1970359814       -5.5624455689       -0.7994048937
 H         1.7255272957       -5.3111977545       -3.0632516606
 H         0.8963322598       -6.9245063595       -2.4777714603
 H         0.2089485960       -5.9278683459       -3.7772536165
 H         2.9666160801       -4.3670244312        1.4565440674
 H         1.4068890858       -5.2106256763        1.9579977519
 H         4.5267200195       -0.8833914761        2.7187183823
 H         4.8994897479       -2.5879522040        2.2339141264
 H        -0.2144957031       -0.8700698484        2.1236172190
 H         0.8534188862       -0.3664150731        0.7360417625
 H         1.1253580691        0.2550701493        2.2853595392
 H         2.7629540070       -1.3324106858        3.7722704991
 H         1.0647317946       -1.7939400125        4.0372305572
 H         2.2608262400       -3.0552879290        3.7945678394
 H         5.5444436284       -0.1452420802        0.6196446223
 H         6.6108645349       -1.0098971051        1.5524678713
 H         7.2726799066       -3.1221330515       -3.8772886618
 H         5.7166376025       -3.6014700883       -2.8955788232
 H         7.5340313302        0.5074286656       -1.5771167827
 H         8.9005774636       -0.5473112667       -1.1969580234
 H         7.7877542130       -0.1220894061        0.0638930485
 H         9.1126845967       -2.4510632879       -2.0185040543
 H         8.7690119166       -2.7586069759       -0.3264218738
 H         7.8568217086       -3.6837997416       -1.6991160913
 H         4.8656910890       -3.7325674005       -4.9546886161
 H         5.6049096816       -2.2553647225       -5.6074718566
 H         4.3922960696        1.0615763067       -3.2243887814
 H         4.3052528107        2.0636333022       -4.6492187186
 H         5.6515909540       -0.1240530526       -5.5785386812
 H         4.5541682370        0.7866407934       -6.5682370738
 H         4.8318349653       -0.8034597572       -7.0379924559
 H         2.1480171648       -0.4700267235       -6.9972510128
 H         2.6659927139       -1.9117676076       -6.8633253857
 H         1.3044140212       -1.3293516936       -5.8086339156
 H         3.1078019395        3.6004951565       -3.0804104959
 H         1.8136412724        2.4451394462       -3.3367349083
 H         1.5550624274        5.1020377778        1.6420941378
 H         0.2816045025        5.0441960070        0.3830921321
 H         0.9326235250        3.6010833577        1.2624438603
 H         3.1225709164        3.0104435081        1.7596635742
 H         4.4367101298        2.0921565904        1.1261304588
 H         2.6958074340        1.5991424629        0.9119382544
 H         4.4837156306        4.4398808639       -1.7825589862
 H         5.1579554897        4.4853585873       -0.1525987229
 H         5.3320314787        3.1764866238       -1.2653322517
 Na        1.7703231283       -0.9501594406       -2.1175358421
