155

 C       -10.2971591542        6.7526595266        6.8562588776
 C        -9.1409409073        6.4132839854        5.9121105456
 C        -7.8975097337        5.6519223983        6.4184809940
 C        -7.8592343417        4.1479519897        5.8492991412
 C        -7.5983794098        3.9949163890        4.3607268115
 C        -6.6418945250        6.4732225082        5.9350350474
 C        -7.8482556451        5.4403813745        7.9596467991
 O        -9.3005235849        6.5880360298        4.7087476475
 O        -7.9719614906        3.2158289128        6.5889038614
 C        -8.2799162396        2.7658212601        3.6636786210
 C        -7.3361594545        1.7486388980        2.9879543604
 C        -7.9727828769        0.4979856229        2.2612069967
 C        -7.2703137414        0.3140713361        0.8087449833
 C        -5.7441650415        0.0528898205        0.6591561348
 O        -6.0942118639        1.7854152942        3.1551547720
 O        -8.0156579467        0.1846610907       -0.1759139295
 C        -7.5630830405       -0.8141984231        3.0809183887
 C        -9.4762718406        0.5969601776        1.9823675553
 C        -5.2189097100        0.6529438609       -0.7150370528
 C        -3.8144096725        0.1075785191       -1.0667978524
 C        -2.6059013353        0.8188478973       -1.9372229613
 C        -1.3997193134       -0.3335610169       -1.9172818022
 C        -1.5785229890       -1.6051754302       -2.7844246551
 C        -3.1539753564        1.2734755181       -3.2925718596
 C        -2.1242458401        1.9682634713       -1.1570672829
 O        -3.5136204274       -1.0348311752       -0.7013659779
 O        -0.3515324858       -0.0955828318       -1.4074094924
 C        -1.4382501073       -2.8971976609       -2.0299531329
 C        -0.0494740075       -3.6329206078       -2.1305711179
 C        -0.0811464921       -5.2198397896       -1.7642908325
 C         0.6806707345       -5.4803973000       -0.3752337368
 C         2.0962699720       -5.0372819078        0.0316621016
 O         1.0337298688       -3.0733876929       -2.4273946501
 O         0.1296918382       -6.2103068493        0.4165253154
 C        -1.5225489070       -5.7212797397       -1.5633348877
 C         0.5641955138       -5.9966312050       -3.0646488296
 C         2.1583403247       -4.2835436735        1.3241590028
 C         1.1654741861       -3.0957003890        1.2485878459
 C         1.7483368992       -1.8283632456        2.0081388839
 C         3.1122734479       -1.6475406026        1.1447105036
 C         4.5208243007       -1.9125415293        1.8717786245
 C         0.8260642093       -0.5247096659        1.8629641799
 C         1.7792660670       -2.3180008991        3.4719386343
 O         0.2099736425       -3.0582929252        0.5900538646
 O         3.1383404524       -1.3154386527       -0.0066228103
 C         5.7271544926       -1.2140620308        1.1026146227
 C         6.1060335662       -2.0972055029       -0.1748424547
 C         7.1759009802       -1.6618926470       -1.2751990873
 C         6.3428545826       -1.5209985872       -2.6557695565
 C         6.0775623729       -2.8793811644       -3.3741360577
 O         5.7194771946       -3.2687043655       -0.2965458771
 O         5.8653773577       -0.4668563096       -2.9926471638
 C         7.7457585119       -0.2192471599       -1.0729776770
 C         8.2293636803       -2.7260933657       -1.4449821517
 C         5.1616096309       -2.6750860917       -4.6434534052
 C         3.9403068691       -1.8865529781       -4.2738087274
 C         3.3905944029       -0.6592866420       -5.1989048182
 C         2.7067304944        0.4584862722       -4.4096517709
 C         3.5685572112        1.7046543401       -3.8459441344
 C         4.5905192710        0.0413190510       -5.9845485574
 C         2.3714303822       -1.3263756133       -6.0988609139
 O         3.3629028590       -2.0698059737       -3.2333025123
 O         1.4730276528        0.4685391070       -4.3520566880
 C         2.8418285382        2.6273778796       -2.8159426909
 C         2.9477104578        2.1187562908       -1.3648139720
 C         3.3799905063        3.1673848320       -0.2204831939
 C         2.3032498949        4.3545910889       -0.3639394800
 C         1.3800080696        4.6126367267        0.8633305661
 O         2.6117597412        1.0034207493       -1.0459888523
 O         2.2613175443        5.0116757682       -1.3838373931
 C         3.4742976470        2.4606350530        1.1825651369
 C         4.7506454751        3.8541363661       -0.5865444128
 H       -10.7564432929        5.9249945293        7.4253942709
 H        -9.9046466327        7.3747123231        7.6088376635
 H       -11.1270324346        7.2861480723        6.3282116933
 H        -7.7364633806        4.9327869782        3.8136031917
 H        -6.4556537061        3.8264894140        4.2438148091
 H        -6.7049629239        7.2933038166        6.6284589826
 H        -6.7628944271        6.9517170205        4.9478351274
 H        -5.6897224065        5.8050541227        6.0072392692
 H        -8.5662451254        4.7077704250        8.3039615940
 H        -6.7856558773        5.1738702723        8.1334738415
 H        -8.0200985719        6.4207794548        8.4260769734
 H        -8.8334759597        2.0667843243        4.3160478355
 H        -8.9428680143        3.1660750726        2.9071622924
 H        -5.3047609621        0.6359632945        1.4836999154
 H        -5.6366417663       -1.0797286950        0.7100853476
 H        -8.1023634013       -0.8929859258        3.9884224234
 H        -6.5018186118       -0.7337043232        3.3919345600
 H        -7.7090815823       -1.7960033988        2.5625724936
 H        -9.8942725814       -0.3309796563        1.5941200439
 H       -10.1092487492        0.7786927539        2.9084685851
 H        -9.7138454046        1.3381049809        1.2643247728
 H        -5.3044006195        1.7118240572       -0.9139608629
 H        -5.9218379253        0.3028367517       -1.5203899006
 H        -2.5166365075       -1.6776069311       -3.4564223173
 H        -0.6986858657       -1.5974303040       -3.4620672838
 H        -3.1161878183        0.5507970656       -4.0785346445
 H        -2.6196215515        2.1391531504       -3.7678240473
 H        -4.2458801454        1.4950266489       -3.2938849415
 H        -1.0917007687        2.0486729155       -0.9076973111
 H        -2.3411047571        2.9415895500       -1.6191718336
 H        -2.5794275526        1.7947447988       -0.2332330153
 H        -1.7079613153       -2.8130913779       -0.9425784943
 H        -2.1834310420       -3.6119664581       -2.4188105552
 H         2.7795458762       -5.9023363955        0.0249393621
 H         2.4790661861       -4.3680618654       -0.7664387845
 H        -1.5187811784       -6.7349626015       -1.1838808450
 H        -2.0895006835       -5.9354547154       -2.4519847268
 H        -2.1009443851       -5.0148586073       -0.9811223052
 H         1.4911646153       -6.3206099089       -2.8999688308
 H        -0.1212212802       -6.8192266876       -3.0345582639
 H         0.4894796687       -5.4049533446       -4.0242040106
 H         3.2203481389       -3.9834826618        1.4898736797
 H         1.8993040900       -5.0300518059        2.0748794416
 H         4.5529773345       -1.4806256874        2.8800448122
 H         4.7903990275       -2.9526325478        1.8885704259
 H        -0.1926018048       -0.7358323517        2.1426437464
 H         1.0258312625        0.0868119742        0.9416640013
 H         1.1066189592        0.1480885108        2.7068930765
 H         2.7349466808       -2.0587458844        3.9813137445
 H         0.9644462452       -1.9809482233        4.0935559782
 H         1.7256907719       -3.3936595768        3.4250912343
 H         5.2805437945       -0.1445320806        0.7118748407
 H         6.5525444547       -0.9120830793        1.7935898027
 H         7.0002985190       -3.2658334777       -3.6599235198
 H         5.5230430069       -3.4483724404       -2.5960035779
 H         6.9979597749        0.4554072335       -1.4978522536
 H         8.6629645362       -0.0965466656       -1.6957247859
 H         7.9982188196       -0.0418346633       -0.0332865419
 H         8.8469740207       -2.6160472892       -2.2668189804
 H         8.9407563339       -2.5440624843       -0.6399053011
 H         7.7170974396       -3.6753873129       -1.4449652239
 H         4.7357538838       -3.6812717910       -4.9227234336
 H         5.7404127240       -2.4169125283       -5.4966049327
 H         4.5952579198        1.3922256702       -3.5231174151
 H         3.7283374308        2.3811613608       -4.7376994355
 H         5.3142033296        0.5073864495       -5.2972731367
 H         4.3001601903        0.9059521275       -6.6004484841
 H         5.0632578145       -0.6520930021       -6.6988206837
 H         1.5989200541       -0.5700699590       -6.5578071285
 H         2.7587695935       -1.7598003632       -7.0972223842
 H         1.7725515305       -2.0433221748       -5.6653926209
 H         3.2304016105        3.5944404416       -3.0210157332
 H         1.8638155551        2.6914272779       -3.1706008217
 H         1.8827990179        5.4113686924        1.4608716669
 H         0.4310140808        5.0342072795        0.6335023480
 H         1.2749024325        3.8923422523        1.6122497874
 H         4.0953844633        2.9976197778        1.9674849851
 H         4.0570269036        1.5267450074        0.8895937007
 H         2.4777412917        2.2437255510        1.5648565319
 H         4.7738803113        4.4605859467       -1.4706509311
 H         5.0551475904        4.4457074770        0.2466470228
 H         5.6399321776        3.1627538037       -0.7929473259
 Na        1.6654901706       -0.8858057063       -2.0641163280
