155

 C       -10.1997161059        6.3313292418        6.9140425690
 C        -9.1853795755        6.1287318419        5.7942104931
 C        -7.8178529155        5.4511967026        6.1610893843
 C        -7.9073278925        3.9483926829        5.6110168705
 C        -7.7180366340        3.7630145579        4.0705846586
 C        -6.7203260441        6.2186412519        5.4522159483
 C        -7.4032354491        5.3649691312        7.7304276301
 O        -9.4032729980        6.2497223726        4.5572787636
 O        -8.2703701852        3.1050991852        6.3695388393
 C        -8.4743714631        2.6098943795        3.3268793969
 C        -7.4619641377        1.5914652650        2.8065390655
 C        -8.0116634812        0.3896775732        2.0238059815
 C        -7.2827168928        0.5346415872        0.6222883284
 C        -5.7922437638        0.8425449587        0.5135477156
 O        -6.2545868621        1.6434902960        3.0344736973
 O        -7.8880177192        0.2364466192       -0.3831245764
 C        -7.4851691118       -0.9101997823        2.7281485426
 C        -9.5169646820        0.3181931914        1.8429061593
 C        -5.3424391107        0.6798028660       -1.0364158958
 C        -4.0181110563       -0.0763437023       -1.1565595918
 C        -2.7981813937        0.6911122509       -1.8271660093
 C        -1.4640274984       -0.1086656234       -1.8419488580
 C        -1.4584613613       -1.4537980679       -2.5732293239
 C        -3.3465220410        0.8769916255       -3.3333044530
 C        -2.5060202241        2.0245335785       -0.9807436787
 O        -3.8647507676       -1.1380765075       -0.6393227792
 O        -0.4356560861        0.2816094538       -1.3270541533
 C        -1.5306428366       -2.7571925216       -1.6983161137
 C        -0.3106914632       -3.6596240121       -1.9186274230
 C        -0.2901551556       -5.1198755627       -1.7954829452
 C         0.4739637989       -5.6063561220       -0.4492117801
 C         2.0310238734       -5.0822340411       -0.3245431258
 O         0.7242628211       -3.0967477332       -2.3278636381
 O        -0.1118009804       -6.3674613306        0.3063418469
 C        -1.7269157539       -5.8155604635       -1.7980035217
 C         0.3933718353       -5.7725244381       -3.0182807210
 C         2.3755416500       -4.2731263002        0.9981890475
 C         1.5029715479       -3.0722976050        1.1301299181
 C         2.0271810702       -1.7832926961        1.9260807015
 C         3.4454578658       -1.4053496379        1.1797198571
 C         4.7343682021       -1.6796862132        1.9361977020
 C         1.0306589255       -0.6951314608        1.9328331072
 C         2.2291247392       -2.2191535558        3.4967812393
 O         0.4621621548       -3.0841009959        0.4875609542
 O         3.3964011565       -1.4056983672       -0.0192311038
 C         5.9568618787       -1.2625462224        1.1239034508
 C         6.2656174621       -2.1679792890       -0.0159033729
 C         7.2187045290       -1.5837953477       -1.1115836482
 C         6.4211942109       -1.4722021025       -2.4832091850
 C         5.9419845297       -2.8516910173       -3.0939729466
 O         5.8222271250       -3.2916607055       -0.0991887891
 O         6.2634904515       -0.3822390420       -2.9905784828
 C         7.6446077874       -0.1083696040       -0.7889311383
 C         8.4916609356       -2.5001825855       -1.2659066149
 C         5.0624101123       -2.5225090067       -4.4409628174
 C         3.9801682385       -1.4952725954       -4.1733942861
 C         3.3070122717       -0.5264736195       -5.1744653348
 C         2.6439863680        0.4575029004       -4.2933436672
 C         3.5720422410        1.5619823580       -3.7079195578
 C         4.3762830687        0.1186227503       -6.2080116377
 C         2.1746293510       -1.2534089525       -6.0479032811
 O         3.5840317329       -1.4784266078       -3.0376007561
 O         1.4766054666        0.3002816775       -3.8366968602
 C         2.8865803463        2.4955881437       -2.7347396680
 C         2.9087625096        2.0716081923       -1.2841651827
 C         3.4331882064        3.1911087857       -0.2389317808
 C         2.3874608357        4.4310521595       -0.2118374722
 C         1.8539921022        5.0071189781        1.0810820854
 O         2.5568339338        0.9618071333       -0.8794280042
 O         2.2822512285        5.0175942857       -1.2520826165
 C         3.4425519506        2.5425594860        1.1727233284
 C         4.8042379778        3.7685062056       -0.7003445496
 H       -10.2543571118        5.6383324159        7.6869115542
 H        -9.8943853269        7.2646488297        7.3697438815
 H       -11.2004277767        6.4213910813        6.6032908026
 H        -7.9284238539        4.7840704915        3.6751294984
 H        -6.5698539179        3.6965936057        3.9076581280
 H        -6.3439538945        6.9612072703        6.1078047972
 H        -7.0880499393        6.7006729397        4.5946082966
 H        -5.9067013718        5.5728955543        5.0931701187
 H        -8.1804675841        4.8386339189        8.3301307279
 H        -6.5490079896        4.6821839168        7.7308900350
 H        -7.0574665687        6.3046611737        8.2437022199
 H        -9.1567606402        2.1622006197        3.9325808823
 H        -8.9674328751        2.9496423678        2.4310772355
 H        -5.7422146681        1.9090465154        0.7958692456
 H        -5.1393907773        0.1061651605        1.0837068241
 H        -7.9368690609       -1.0233538281        3.6519552127
 H        -6.3835093858       -0.8012373602        2.8488742339
 H        -7.7091292534       -1.8612164674        2.2330614901
 H       -10.0080157498       -0.5817298727        2.1791950575
 H       -10.0884683255        1.0808300417        2.4138822880
 H        -9.6909381417        0.3262611145        0.7951682618
 H        -5.3938983340        1.5315480342       -1.6339209854
 H        -5.9931879072        0.0261072996       -1.6206770500
 H        -2.3100891918       -1.5529314443       -3.3627372309
 H        -0.6021110471       -1.4508060561       -3.1911829199
 H        -4.0531136929        0.1807727502       -3.6442831878
 H        -2.4588553742        0.8951387198       -3.9753919163
 H        -3.8026579025        1.8846745694       -3.7023901292
 H        -2.1432243355        2.7600517737       -1.6742981961
 H        -3.4685751455        2.4002261674       -0.5748014551
 H        -1.7785902758        1.9550309701       -0.2717134323
 H        -1.7484604356       -2.4398856324       -0.5788773754
 H        -2.4039730110       -3.2888893616       -1.9510545637
 H         2.6974484783       -5.9209315720       -0.5640833915
 H         2.2354247129       -4.3839244942       -1.1081182538
 H        -1.8368108486       -6.8814624121       -2.1752054272
 H        -2.4131862182       -5.2607769010       -2.4922535621
 H        -2.3351693414       -5.8494291313       -0.8554348471
 H         1.2492369643       -5.1955591230       -3.2197301082
 H         0.6983408530       -6.7672287112       -2.7224568711
 H        -0.3421470453       -5.7477203841       -3.8255085472
 H         3.5098504305       -4.1919386507        1.1799564605
 H         2.0069287121       -4.9361524904        1.8233757862
 H         4.7237090881       -1.0412417888        2.8268456766
 H         4.8452662020       -2.7449144335        2.1283267495
 H         0.2455038933       -1.0256400708        2.6200223451
 H         0.5948060989       -0.5962769504        0.9150137625
 H         1.4040382791        0.2359187233        2.3314706328
 H         2.2558754961       -1.3568680119        4.2358011760
 H         1.3285956965       -2.7751474063        3.7125904814
 H         3.1110546982       -2.8203599333        3.6086293178
 H         5.7916931812       -0.1452329485        0.8298733589
 H         6.8980023109       -1.1989705856        1.7733606337
 H         6.8410671831       -3.4101459811       -3.3226003627
 H         5.2126293670       -3.3497328981       -2.3780211070
 H         6.8122491975        0.4928057086       -1.0859168229
 H         8.3886279676        0.0998004179       -1.6030412669
 H         8.0679965956        0.1391750324        0.1366896330
 H         9.1955776204       -1.8581457464       -1.8542585758
 H         8.9488451698       -2.7523987280       -0.2708747957
 H         8.2968112361       -3.4600328546       -1.7387480918
 H         4.7067705479       -3.5012680730       -4.8462920551
 H         5.6458964959       -2.2205339275       -5.3313105972
 H         4.3935921786        1.0728729062       -3.1082289191
 H         4.0803714189        2.0777674630       -4.5566197537
 H         5.3846834033        0.2747550897       -5.7474065046
 H         4.0592901456        1.1018965237       -6.5198723891
 H         4.4743470990       -0.5433159141       -7.0519036942
 H         2.3329070735       -0.9249898261       -7.0646767408
 H         2.3975762824       -2.3916831712       -6.0173260109
 H         1.1086964988       -1.3237129494       -5.7815680942
 H         3.2948360641        3.4469078949       -2.8891260188
 H         1.8852767352        2.6160763378       -2.9930528437
 H         2.5316879680        4.9099614604        1.9985266043
 H         1.8317548450        6.0713959700        1.0002362086
 H         0.8861191967        4.6935571753        1.4399279445
 H         3.3631159488        3.2705994861        2.0071365787
 H         4.4086513336        2.0884367305        1.3573004632
 H         2.7233860451        1.7148594507        1.2745903217
 H         4.6970022217        4.3854292043       -1.5508892127
 H         5.0842290339        4.4375108061        0.0766035281
 H         5.7214324706        3.1461111693       -0.8155464274
 Na        1.5773192359       -0.9848137301       -1.5535946401
