155

 C       -10.1525808031        6.1683390327        6.9506209411
 C        -9.2196974646        6.0303014772        5.7565344076
 C        -7.8030874249        5.3212033122        5.9624864560
 C        -7.9620344991        3.8260495630        5.4796968833
 C        -7.6826244823        3.6134900753        3.9665252900
 C        -6.6749144979        6.0860516200        5.1027872176
 C        -7.3230449192        5.2613585241        7.4468549994
 O        -9.4825390156        6.3835707853        4.6663347600
 O        -8.4389524424        2.9040246075        6.1320831445
 C        -8.4428812817        2.5008048357        3.3128254341
 C        -7.4538645881        1.5265902633        2.7507268908
 C        -7.9709893252        0.3683438279        1.9208803054
 C        -7.4231082078        0.4853696966        0.4292259135
 C        -5.9818081683        1.0056308368        0.3402526857
 O        -6.2431718171        1.7356022644        2.9683089455
 O        -8.0912480949        0.3288725410       -0.6014678481
 C        -7.2346292339       -0.9623185381        2.3867545536
 C        -9.4675191747        0.1180903149        1.7366483737
 C        -5.4043400898        0.6496767933       -0.9494655711
 C        -4.0794311910       -0.1079232600       -0.9505741942
 C        -2.9168488016        0.7165247975       -1.7752260286
 C        -1.5718995017       -0.2036998637       -1.7845714843
 C        -1.5951276561       -1.5511038848       -2.5758072331
 C        -3.4259652637        0.9126960771       -3.1128269239
 C        -2.7005866008        2.1089740842       -1.1462624233
 O        -3.9902296725       -1.2804734878       -0.5445401912
 O        -0.5377142631        0.1625280129       -1.2561118184
 C        -1.3739107090       -2.7070996659       -1.6231414219
 C        -0.2693609730       -3.5841127236       -1.9572323498
 C        -0.4005420300       -5.0971423444       -1.8971638141
 C         0.3935375578       -5.6071699121       -0.5314396588
 C         1.9076249550       -5.3124613212       -0.4833738233
 O         0.8290477414       -3.0833140188       -2.1571929026
 O        -0.2331942880       -6.1686791462        0.3242181782
 C        -1.8291540649       -5.5964508181       -1.7883650493
 C         0.3646654613       -5.7601523879       -3.1945786643
 C         2.1642929585       -4.3908246886        0.7577194177
 C         1.3993190777       -3.1095418907        1.0097198622
 C         2.2072528931       -2.0282597717        1.9390448126
 C         3.5192549410       -1.7401055643        1.2513803367
 C         4.7749796132       -1.5698317182        2.1562570953
 C         1.3969938622       -0.7979674816        1.8894507098
 C         2.3418461701       -2.5657630697        3.3733343056
 O         0.2815519773       -2.8950150363        0.6731862264
 O         3.5830292373       -1.4107057547        0.0784591209
 C         6.0667547212       -1.1482815224        1.3194540644
 C         6.3683204690       -1.8633411812        0.0225861441
 C         7.4544245348       -1.4309979490       -1.0747019769
 C         6.5657879740       -1.3759002258       -2.5529843628
 C         6.0233581796       -2.7332240583       -3.1760552490
 O         5.9545039722       -3.0135201253       -0.0665649914
 O         6.2820572277       -0.3381933049       -3.0832853328
 C         8.1264048218       -0.0796907563       -0.8615088716
 C         8.5128402569       -2.5556010352       -1.1622095461
 C         5.1423207373       -2.4575041788       -4.3323073966
 C         3.8644649142       -1.6159199131       -3.9636944945
 C         3.2314271347       -0.5953371179       -5.0737174431
 C         2.6508949183        0.5728735997       -4.1052335830
 C         3.5644383187        1.6730048176       -3.6068568564
 C         4.2562332042       -0.1596811368       -5.9922636629
 C         2.0185559161       -1.2516110212       -5.8742448728
 O         3.5564734537       -1.5431642498       -2.7775592438
 O         1.5562090105        0.4253630510       -3.7316663907
 C         2.7097013547        2.6583087636       -2.6812913375
 C         2.8177895217        2.2543184661       -1.1739239486
 C         3.4476026094        3.3042190112       -0.1893034567
 C         2.4766016127        4.6059411048       -0.1970208540
 C         2.0409935860        5.2213140578        1.1465431214
 O         2.4384973299        1.1654232864       -0.8515422385
 O         2.1963640508        5.1478229976       -1.2548814980
 C         3.6679331028        2.4836140998        1.1927807568
 C         4.8137646009        3.7441303787       -0.6947762939
 H       -10.1703791850        5.0844319556        7.3406242820
 H        -9.9086260386        6.7891934308        7.8012814489
 H       -11.2609061177        6.3339107990        6.7208116829
 H        -7.9382860237        4.5260235655        3.4639661120
 H        -6.6469055734        3.5645081954        3.8306092252
 H        -6.5721009085        7.2129407041        5.1813136199
 H        -6.8336531798        5.7775807880        4.0207490386
 H        -5.6608195122        5.6560921174        5.3643360242
 H        -8.0036855126        4.7118820269        8.0785861914
 H        -6.3138640774        4.8223531474        7.6087722109
 H        -7.2886750484        6.2751522483        7.7779441112
 H        -9.1475449383        1.9106115922        4.0992170485
 H        -9.1401156290        2.9601202931        2.5402930849
 H        -6.0239307929        2.0923281294        0.4079648094
 H        -5.4145187003        0.5625237507        1.1143230041
 H        -7.8748828556       -1.4216219096        3.2101226511
 H        -6.2345296166       -0.8694739724        2.7126345004
 H        -7.3124040618       -1.7106946049        1.6052953358
 H        -9.7749731768       -0.8272172156        2.2194034527
 H        -9.9720813741        0.8905578604        2.2914042438
 H        -9.8045998803        0.0456593003        0.6794587647
 H        -5.1298568363        1.6591156260       -1.4883351889
 H        -6.1909245869        0.2456787889       -1.6552639977
 H        -2.5064916756       -1.6833220829       -3.0504814572
 H        -0.8348216234       -1.6243635186       -3.4479452294
 H        -3.9398874948       -0.0242334832       -3.5188815574
 H        -2.7062953808        1.3637994563       -3.7772270387
 H        -4.1388678262        1.6255836800       -3.1906856144
 H        -1.8605372028        2.5423703260       -1.6959345862
 H        -3.5591227327        2.7511697152       -1.0695819697
 H        -2.3062852959        1.8920812036       -0.0850378554
 H        -1.1555120182       -2.4322412581       -0.6879814565
 H        -2.3475757041       -3.3053856044       -1.5214149450
 H         2.4688391581       -6.2393001142       -0.2694010820
 H         2.4433141149       -4.9077529863       -1.4049856987
 H        -1.8481148314       -6.5521451253       -1.3509207930
 H        -2.5065004379       -5.5724368406       -2.6194217312
 H        -2.3774225253       -5.1242530438       -1.0013933846
 H         0.7702477953       -4.9239696749       -3.7385329262
 H         1.2322094757       -6.2966929813       -2.8231762171
 H        -0.3640615812       -6.4142999352       -3.7863493774
 H         3.1936319600       -4.2877029598        0.8328061753
 H         1.9410899676       -5.0710996861        1.5767728118
 H         4.6377946880       -0.7057430126        2.8020148125
 H         4.9575442720       -2.4902300104        2.7055236295
 H         0.3234615579       -0.9076969906        2.1537468490
 H         1.4765654091       -0.5385814688        0.8197121508
 H         1.8514576369       -0.0058083340        2.5576398141
 H         3.0130507716       -1.9268959202        3.8502283551
 H         1.3515819207       -2.4567127326        3.8220346545
 H         2.8011077102       -3.5750644391        3.4067671162
 H         5.8343232629       -0.1228903330        1.1771396017
 H         6.9384123291       -1.0745768522        1.8803014336
 H         6.9501906887       -3.1974197688       -3.5076705554
 H         5.4897299697       -3.2465286535       -2.4446771326
 H         7.4230488802        0.7767197122       -1.0036330419
 H         8.9854996179        0.0194844771       -1.4793107286
 H         8.5263026623       -0.0461423218        0.2302300145
 H         9.1545854431       -2.3782243222       -1.9477395171
 H         8.9767951451       -2.7341898894       -0.2317951604
 H         8.0072956974       -3.5129726997       -1.2856937846
 H         4.8317177071       -3.3632469949       -4.8673853982
 H         5.7393712131       -2.0290617185       -5.1137742359
 H         4.3787781700        1.2053604064       -3.0692372922
 H         3.9840798504        2.1099307104       -4.5188736106
 H         5.0657216000        0.2399802833       -5.3958737546
 H         3.8461821815        0.6549353368       -6.6653126833
 H         4.7114279609       -1.0097044415       -6.5853842951
 H         1.8544056842       -0.5874983345       -6.7965478308
 H         1.9967038264       -2.2930449362       -6.0418050025
 H         1.1450234553       -1.1733264127       -5.3083404262
 H         3.0400858835        3.7113492579       -2.9108560003
 H         1.6688509512        2.6068450438       -3.1091489521
 H         2.7562246664        5.2814193319        1.8853981879
 H         1.7071001235        6.2593961290        1.1249501212
 H         1.2237118052        4.6740176031        1.5851436334
 H         4.3277467215        3.0539603553        1.8496668340
 H         4.1288007394        1.4528467496        1.0298256507
 H         2.7529540014        2.2555638791        1.7274276232
 H         4.7075038373        4.4771271591       -1.5262104087
 H         5.5854630102        4.1421911116        0.0026606060
 H         5.2767794279        2.8627020375       -1.0856190568
 Na        1.5661606012       -1.0343928219       -1.5019946419
