155

 C       -10.1216187311        5.5541825621        6.8252292159
 C        -9.1712873276        5.9514415391        5.7591052302
 C        -7.8525813445        5.0158656344        5.5664518027
 C        -8.2552410395        3.6346675523        5.0840306798
 C        -8.0186987942        3.3526566367        3.5343123582
 C        -6.9489561000        5.6413568796        4.4511978184
 C        -7.2612492089        5.0133024854        7.0260927186
 O        -9.3842124669        6.8930414541        5.0799843461
 O        -8.7677688169        2.7893190909        5.7993826886
 C        -8.6885790028        2.0848163932        3.0949940610
 C        -7.6046165076        1.1432804758        2.5816654215
 C        -8.0077893771        0.0071962727        1.6588187676
 C        -7.6342878215        0.5197666987        0.1212015111
 C        -6.1699245935        0.9318484205       -0.1549071368
 O        -6.4480735514        1.2520934022        2.8836511904
 O        -8.4960420844        0.7043307959       -0.7017046698
 C        -6.9806075874       -1.1757854593        2.0041686198
 C        -9.4419667743       -0.4977869110        1.8330926295
 C        -5.5658703708        0.5723330205       -1.6470108640
 C        -4.1363423646        0.2169019879       -1.3678580342
 C        -2.8871866127        1.0570145332       -2.0210746568
 C        -1.7217813003       -0.0013598069       -1.8643161107
 C        -1.9104980605       -1.3711625160       -2.6445972029
 C        -3.0908742929        1.3375910178       -3.4667930949
 C        -2.6430057259        2.2326177213       -1.0841067565
 O        -3.7904817949       -0.7694686329       -0.7591266046
 O        -0.7722271486        0.2220721581       -1.1188131964
 C        -1.7522656652       -2.6162018883       -1.7441607364
 C        -0.5094877338       -3.4876197059       -2.1597658837
 C        -0.5176411657       -5.0765594700       -1.9480945103
 C         0.2229248538       -5.3697550314       -0.5608676038
 C         1.7321985315       -5.3288497269       -0.4609953037
 O         0.5557071077       -3.1106612441       -2.6262986716
 O        -0.4445528820       -5.7307861377        0.3642400724
 C        -1.8756649056       -5.8043129153       -1.8638691424
 C         0.4233157892       -5.8206503386       -3.0557361392
 C         2.2488370493       -4.7998794539        0.9240924532
 C         1.8610797845       -3.3180579603        1.0243169416
 C         2.4879617984       -2.3095581132        2.1146262588
 C         3.5340069529       -1.4219989010        1.2446333637
 C         4.9081758412       -1.2144230869        1.8164525240
 C         1.5303487102       -1.3940661091        2.8368626870
 C         3.1089649491       -3.1960038787        3.2558687180
 O         0.9595069295       -2.8559649844        0.2937159704
 O         3.1559871482       -0.9958671272        0.1975669308
 C         6.0123960106       -0.8433034384        0.8002860949
 C         6.7999801315       -1.9944352002        0.1037316774
 C         7.8311592018       -1.4695084965       -1.0587659377
 C         6.9127020379       -1.2817646970       -2.2628642315
 C         6.3756057645       -2.4475310997       -3.0169926223
 O         6.5034842451       -3.1516681739        0.2650079607
 O         6.4716468385       -0.1403230931       -2.4765124438
 C         8.3407145991       -0.0652874222       -0.6635851681
 C         8.9770041677       -2.5060708665       -1.2532016673
 C         5.2528024799       -2.1810907223       -4.0670994899
 C         3.9067726842       -1.6009574482       -3.5004118495
 C         3.0363828411       -0.7111239457       -4.5796575750
 C         2.4451493211        0.3987560243       -3.7015063314
 C         3.1451282722        1.8147069873       -3.4341681714
 C         3.8514921875       -0.1318168755       -5.7601234569
 C         1.7757355082       -1.4884151825       -5.2267973702
 O         3.4867220479       -1.7884959304       -2.4108510507
 O         1.3160781082        0.2354868998       -3.1942687864
 C         2.5245269376        2.8385420059       -2.5352321886
 C         2.7261415983        2.4941651785       -1.0571113784
 C         3.5274989097        3.5181601803       -0.1450450805
 C         2.7338508939        4.8682954201       -0.0249020918
 C         2.7875645173        5.6419224475        1.2595405104
 O         2.4907254317        1.4117094326       -0.5846479636
 O         2.2239403319        5.3839770341       -0.9913179208
 C         3.8334402496        2.8386349639        1.2040003567
 C         4.8463284758        3.9447934556       -0.8710203639
 H       -10.1166132726        4.5198799187        7.2115678755
 H        -9.6704657742        6.0826495938        7.7621670055
 H       -11.1430170830        5.9538493532        6.8041584596
 H        -8.3501470560        4.2081797117        2.9806031724
 H        -6.9841830079        3.2112868815        3.3938236177
 H        -6.5632386851        6.6688413102        4.7657309364
 H        -7.5075777906        5.9564391185        3.5222081444
 H        -6.0627428170        5.0826427258        4.2634770514
 H        -7.9033046644        4.4968165786        7.7441759500
 H        -6.3624795025        4.4881345473        7.0341434070
 H        -7.0503481468        6.0231184913        7.4171977485
 H        -9.2474979180        1.6334000444        3.8993065413
 H        -9.4605068622        2.2453552295        2.2772005285
 H        -6.0875992632        1.9479074856        0.2289941132
 H        -5.5746103447        0.3741615060        0.5663388523
 H        -7.3269618842       -1.6332653230        2.9118671395
 H        -5.9744541385       -0.7794836968        2.2590657308
 H        -6.8363202496       -1.8959468180        1.2094533293
 H        -9.7535175924       -0.0413672952        2.7735316681
 H        -9.9851408310       -0.0793250753        0.9866011508
 H        -9.5848389594       -1.6072784360        1.7601254061
 H        -5.6227414509        1.4006336258       -2.3388768045
 H        -6.1467165349       -0.3032729089       -1.9306445079
 H        -2.9978010997       -1.3613511495       -2.9934254417
 H        -1.3113477351       -1.3237012483       -3.4747809625
 H        -3.2881090151        0.3782388016       -4.0054714252
 H        -2.1918845566        1.6317891963       -3.9600639356
 H        -3.8614947573        2.0657615941       -3.6353402961
 H        -1.8550961183        2.8921819071       -1.5294845920
 H        -3.6272689262        2.7221392101       -0.9546848165
 H        -2.3000811710        1.9571943799       -0.0441695245
 H        -1.6347531018       -2.1775490833       -0.6772445918
 H        -2.6726030966       -3.1831751754       -1.7401442695
 H         2.0854299552       -6.3217858007       -0.7971374644
 H         2.1019466451       -4.5653478691       -1.0699615201
 H        -1.7514406630       -6.7684584103       -1.4092455739
 H        -2.2741777499       -5.9604856230       -2.8429694950
 H        -2.6471436192       -5.2816276907       -1.3628997925
 H        -0.2220639160       -6.4690230135       -3.7423690943
 H         0.8567614856       -4.9833468467       -3.6196650030
 H         1.2113311094       -6.4155682236       -2.7003938661
 H         3.3571489886       -4.8728615233        0.9394428564
 H         1.9267059276       -5.3673572094        1.7572096147
 H         4.8275397280       -0.4238978722        2.5730211868
 H         5.2789332398       -2.0750830241        2.4075618979
 H         0.9514816349       -1.9148991464        3.6760570968
 H         0.7263754982       -1.2629588409        2.1069953047
 H         1.9748131632       -0.4639010931        3.1102904314
 H         3.7414809710       -2.6406440506        3.9855088587
 H         2.1982439452       -3.5619660651        3.7084366527
 H         3.6091618384       -4.0311572496        2.8577812853
 H         5.5876494531       -0.2075337597        0.0832313398
 H         6.7751688104       -0.1425076603        1.3773284320
 H         7.2027827090       -2.8493919447       -3.6170033222
 H         6.0239250473       -3.2602279415       -2.3417156332
 H         7.6253513350        0.7396008459       -0.8491923783
 H         9.3118693115        0.1960525547       -1.1650319341
 H         8.5143566003        0.0545867892        0.3923177772
 H         9.7628336682       -2.1916870973       -2.0069817040
 H         9.5502498663       -2.6127785744       -0.3495418390
 H         8.6158496049       -3.4182747117       -1.6586848683
 H         5.2540444023       -3.1619540458       -4.4760546541
 H         5.6142221836       -1.4420519138       -4.8533724917
 H         4.1858262121        1.6545699102       -3.0840007589
 H         3.2088177008        2.2673583285       -4.3855131245
 H         4.7746060533        0.3193846882       -5.2593195571
 H         3.2286311627        0.5444120280       -6.3534085635
 H         4.0869911624       -0.9644120127       -6.4335648723
 H         1.3959036433       -1.0573285223       -6.1691455124
 H         2.1823159009       -2.4230321924       -5.4828428616
 H         0.8920804111       -1.5552291969       -4.5501055031
 H         2.8620636532        3.8266716167       -2.9482909428
 H         1.3864536086        2.7390663085       -2.5367007208
 H         3.7667339568        5.5249453569        1.6623503126
 H         2.5479581967        6.6960612056        1.2554677881
 H         2.1376021128        5.3054360592        2.0755109299
 H         3.5602128572        3.4531861994        2.0547650845
 H         4.8743357490        2.7548519102        1.2753440302
 H         3.3748724512        1.8239968110        1.4258307215
 H         4.6523271487        4.6346361502       -1.7156370773
 H         5.4258577514        4.5409811553       -0.1344832083
 H         5.4012459931        3.0913630511       -1.2718098523
 Na        1.2734939022       -1.2585400538       -1.2257175685
