155

 C        -9.3554306080       -5.9308593733        0.5380040619
 C        -8.7225842674       -5.3672322795        1.7731984022
 C        -7.8541652503       -4.0813947446        1.6682338620
 C        -6.5044216626       -4.7305717165        1.3459414527
 C        -5.6686655742       -5.4250378460        2.4502977205
 C        -8.2997674095       -3.2661769716        0.4620259271
 C        -7.8996036303       -3.2738834367        3.0588115586
 O        -8.8950546590       -6.0140958817        2.7412985053
 O        -6.0533598047       -4.8213720928        0.1916863938
 C        -4.1207496958       -5.3124148596        2.1640914979
 C        -3.5722012490       -3.9706328310        2.6861976651
 C        -2.0454508000       -3.6910211627        2.5505667362
 C        -1.7683040330       -3.5164144696        1.1019858529
 C        -2.7712503909       -2.5050695390        0.3818281419
 O        -4.3131008171       -3.1266834178        3.1404259503
 O        -0.8334941948       -4.0236827033        0.5279741938
 C        -1.7771589852       -2.3161155223        3.2302045150
 C        -1.2197532370       -4.8078975145        3.1725931649
 C        -2.4475170460       -2.3901111721       -1.1601916644
 C        -1.2381118340       -1.3876753533       -1.2661453835
 C         0.1811133822       -1.8228263584       -1.9715463983
 C         0.0191064906       -1.1445032344       -3.3177071377
 C        -0.0661812290       -1.9715281709       -4.5661443235
 C         1.3726511953       -1.1854731683       -1.0657449670
 C         0.3599102707       -3.3475057330       -2.0105889637
 O        -1.4155357747       -0.2875640102       -0.8521469773
 O         0.2647202608        0.0207602871       -3.3973460853
 C        -0.5512355753       -1.0984778681       -5.7209618598
 C        -2.0824348019       -1.1500104965       -5.9045328561
 C        -2.8881142580       -0.1186080579       -6.8108472375
 C        -3.4337283259        0.9263001055       -5.7085379451
 C        -4.6075550305        0.5467729065       -4.9241932948
 O        -2.7611562310       -2.0125575838       -5.2966155611
 O        -2.7329697067        1.9632477345       -5.6076464466
 C        -1.9730028421        0.6277680266       -7.7828454863
 C        -4.1088784954       -0.8337346045       -7.4891912086
 C        -5.0211912523        1.7387498348       -3.9930882626
 C        -3.9200368014        2.2987470168       -3.1095095663
 C        -4.0955311449        3.6771434085       -2.4058878547
 C        -2.6190988812        4.2433585015       -2.0058535081
 C        -2.0032571885        5.6183406393       -2.5219125556
 C        -4.7645084523        4.6994617238       -3.2910673057
 C        -4.9160628869        3.5143433750       -1.0923786469
 O        -2.9237095618        1.6364105640       -2.8671441735
 O        -1.9913864370        3.6157032912       -1.1551763052
 C        -0.7711517059        5.9653726516       -1.7542765412
 C         0.1574285935        4.6487401970       -1.5570493104
 C         0.6936558657        4.4162428813       -0.1042013611
 C         1.2056878510        2.9263704367       -0.0141465041
 C         2.0998032512        2.4962059616        1.2144238298
 O         0.6131341989        4.0581340414       -2.5093510157
 O         0.9592860949        2.1113790967       -0.8658143705
 C         1.8635154781        5.3657761148        0.1293280150
 C        -0.2436789256        4.6485020635        1.0421324681
 C         3.6297666392        2.3667062913        1.1238947506
 C         4.0756730803        0.9187115946        0.9720668100
 C         5.5861367009        0.6089375944        0.7372570887
 C         6.3308688942        1.0254902221        2.0707050949
 C         6.9082497777       -0.1057246393        2.9908319212
 C         5.8342689867       -0.9324007145        0.2158443866
 C         6.0964815121        1.6423316561       -0.3387794730
 O         3.3608643020       -0.0068357185        1.1659648666
 O         6.1912479536        2.2144329286        2.4178709254
 C         7.2278656706        0.4481348105        4.4353861587
 C         8.7197141269        0.7481843609        4.6549649240
 C         9.0554525160        0.9910216320        6.0976273646
 C         8.5067835047        2.3639248313        6.5176458120
 C         8.2737831385        3.5530884188        5.4946294688
 O         9.4962246946        0.8616570625        3.7276306815
 O         8.3066077796        2.5649249112        7.6684254190
 C         8.3894665226       -0.0337812177        7.0489767252
 C        10.5584522990        1.0270286147        6.5643287381
 H        -9.0345970897       -6.9717601126        0.4078166731
 H       -10.4383144344       -6.0176129690        0.7113236680
 H        -9.1488005338       -5.4233115660       -0.3895361221
 H        -5.9377087257       -5.0675229980        3.4649111613
 H        -6.0018797447       -6.4817368026        2.4013658711
 H        -7.6123178000       -2.4072973806        0.3283240920
 H        -9.3236526007       -2.8841684775        0.5768490067
 H        -8.1716452772       -3.8643399161       -0.4188357746
 H        -8.8913303532       -2.6918579568        3.0687309141
 H        -7.8691861571       -3.8449641750        3.9780989437
 H        -7.0429613678       -2.5714492354        3.0576342309
 H        -3.6653138028       -6.0513255090        2.7236301138
 H        -3.9176529855       -5.3879774253        1.0891187738
 H        -3.6991114086       -2.9559661459        0.5637234730
 H        -2.8022337358       -1.4797009662        0.7655801412
 H        -0.9680066616       -1.7454912585        2.7105158634
 H        -1.4198989697       -2.3862963085        4.3182562817
 H        -2.7060921491       -1.6761113083        3.2888323777
 H        -1.7218929316       -5.7552690389        3.2155839683
 H        -0.3973312998       -4.9192273063        2.4520533318
 H        -0.6697501223       -4.5706985351        4.1080192425
 H        -3.2705694518       -1.9618749614       -1.7242697336
 H        -2.2220927073       -3.3039231979       -1.6187186958
 H         0.9470551105       -2.4175656207       -4.7407161686
 H        -0.8739365797       -2.7046142613       -4.5236993288
 H         2.3491809960       -1.3405509714       -1.5405009473
 H         1.4537796229       -1.6832641868       -0.0106613043
 H         1.4042324634       -0.1287828959       -0.9850631363
 H         0.1856479069       -3.7612631380       -1.0482418971
 H        -0.3936004259       -3.9514443035       -2.6422737527
 H         1.2946650545       -3.5403086744       -2.4856759554
 H        -0.2615932442       -0.1191282182       -5.6394285443
 H        -0.1214775438       -1.3697582611       -6.6935632513
 H        -5.4881618137        0.1959759966       -5.4815199104
 H        -4.3445914713       -0.3128171564       -4.3919947212
 H        -1.1978386111        1.1171631952       -7.2131825023
 H        -2.4618253950        1.4393267938       -8.2520373341
 H        -1.4898872923        0.0149451108       -8.5225469305
 H        -4.8590608935       -0.0720303032       -7.6779053398
 H        -3.8274896861       -1.3819731151       -8.4062636065
 H        -4.4744947277       -1.5914845639       -6.7650180817
 H        -5.7746487689        1.3622423476       -3.2648516508
 H        -5.5668827447        2.4963949343       -4.6243789586
 H        -1.6198113625        5.4365082204       -3.4838499220
 H        -2.7721704844        6.4025377662       -2.6350455462
 H        -4.3547444213        4.8698186764       -4.3035024440
 H        -4.8751392291        5.6920369026       -2.7728652593
 H        -5.7604457999        4.4328166681       -3.4214033158
 H        -4.7744194237        4.4658043672       -0.5041076597
 H        -5.9566685017        3.3699560397       -1.3385019040
 H        -4.7251409910        2.6429831071       -0.4302627718
 H        -0.1106845476        6.6616334479       -2.3621570940
 H        -1.1036458450        6.4070695208       -0.8536002173
 H         1.9148608701        3.1384948165        2.0814138043
 H         1.6391990383        1.5469974561        1.3677825404
 H         1.7154123646        6.4261860846       -0.0994893373
 H         2.7376023500        5.0270274390       -0.5439342502
 H         2.2131855462        5.2251875294        1.1165959959
 H         0.2855281867        4.3609663530        1.9741748688
 H        -0.3690322345        5.7334524127        1.1214895196
 H        -1.2586740519        4.1232660475        1.0445962824
 H         4.1048064544        2.7637629672        2.0961528943
 H         3.8727052001        2.9105409691        0.2305915103
 H         6.1885322099       -0.8715958103        3.0039894070
 H         7.8155263619       -0.4343140084        2.6050691419
 H         5.3700755919       -1.5745289808        0.9593705805
 H         6.9066784137       -1.1933885090        0.2482108140
 H         5.5276384093       -0.9350989577       -0.8395426205
 H         7.1464411479        1.4081887806       -0.6339337475
 H         5.4262244644        1.6297995599       -1.2040713919
 H         6.0089194834        2.5699220919        0.1198782301
 H         6.8078576918        1.4816165682        4.3647416466
 H         6.9667608903       -0.2263979244        5.2480725470
 H         8.7649941934        4.4175450721        5.9319979201
 H         8.6105122085        3.3823809836        4.4946893976
 H         7.2533650341        3.8417779332        5.4294540933
 H         8.5980962238        0.1659120178        8.0670960362
 H         8.7667473657       -1.0086743308        6.8101128358
 H         7.3078533613        0.0237875785        6.9532972743
 H        10.4407426394        1.0926827345        7.6286655851
 H        10.9709549038        0.0794097589        6.2362269567
 H        11.1690949585        1.8717120459        6.2147321404
 Na       -0.6710338428        1.7697764482       -2.3076896091
