155

 C       -10.1033243734        5.2279889605        6.8134444348
 C        -9.2089925151        5.8410494204        5.7367652891
 C        -8.0089063413        4.8427996612        5.2902449402
 C        -8.6264608055        3.4899616209        4.6875078689
 C        -8.2676370216        3.1880770132        3.2083503636
 C        -7.1197343595        5.5790968158        4.2809911494
 C        -7.2146318379        4.4733417237        6.5347018942
 O        -9.3244907091        6.9686729136        5.3146648212
 O        -9.2947617559        2.7879622777        5.3901547881
 C        -8.9063367168        1.8911199003        2.6648144466
 C        -7.7756771974        0.8273331177        2.5196476980
 C        -7.9214190404       -0.2637284573        1.3829020716
 C        -7.5160879923        0.4499378812        0.0207012976
 C        -6.1764322872        1.2406162995       -0.1256837985
 O        -6.7825134398        0.7990350069        3.2067926565
 O        -8.2045370315        0.2688155835       -0.9299014771
 C        -6.9000728299       -1.3612330352        1.7106287398
 C        -9.4059163277       -0.7036595650        1.2649010597
 C        -5.4038068594        1.1420582333       -1.4581739370
 C        -4.2123334852        0.1622953498       -1.4159281031
 C        -2.8023160755        0.8316758193       -1.9237944590
 C        -1.6569118159       -0.1187436110       -1.7410633465
 C        -1.5536739629       -1.4463119804       -2.5681554563
 C        -2.9237128763        1.2850849267       -3.4314461459
 C        -2.4647684895        2.1341969419       -1.1517826720
 O        -4.4329742566       -0.9743278398       -1.2768241699
 O        -0.6723317294        0.0946463148       -1.0489632726
 C        -1.5055018105       -2.6518832583       -1.6197301448
 C        -0.4099693588       -3.5543264588       -2.0569387057
 C        -0.5862625450       -5.1082419467       -1.9723989420
 C         0.0166467304       -5.3509625618       -0.5195607856
 C         1.5288127055       -5.4751674606       -0.4897235171
 O         0.7280432374       -3.1599491863       -2.4091166430
 O        -0.6513981685       -5.0892234252        0.4418661567
 C        -2.1040044645       -5.4026890790       -1.9948719926
 C         0.1655618257       -5.9265298976       -3.0240224223
 C         2.1672833265       -4.9180673188        0.8747394623
 C         1.9718190570       -3.3964259584        1.0416585593
 C         2.5717303460       -2.7535065708        2.3823973201
 C         3.5859730462       -1.6592181535        1.7096147216
 C         5.0936463551       -1.4834472187        2.1354076876
 C         1.4857440869       -1.9759130572        3.0508694393
 C         3.4788654748       -3.7433439923        3.2181941185
 O         1.2300765462       -2.7721637915        0.2965133098
 O         3.1700009078       -0.8160014097        0.9194466986
 C         5.8954691161       -0.8742050344        0.9653362808
 C         7.0699561605       -1.7253487748        0.4760235045
 C         7.8042054890       -1.3981632045       -1.0130534201
 C         6.7414282501       -1.1625954013       -2.0860371747
 C         6.1832699174       -2.3567125644       -2.9432896013
 O         7.5584972664       -2.5562064993        1.2016013936
 O         6.2880446606       -0.0419526727       -2.2834193432
 C         8.7128892854       -0.1379763185       -0.8541895783
 C         8.7513213127       -2.5937535023       -1.2164389997
 C         5.1330741646       -1.9370419873       -3.9865003622
 C         3.8619322122       -1.1558297876       -3.5518364771
 C         2.9632949244       -0.4629501400       -4.6145316117
 C         2.2263587304        0.7027134592       -3.8944141512
 C         3.1647520913        1.9672404861       -3.4817350435
 C         3.9022115403        0.1776963641       -5.7488540961
 C         1.8405044145       -1.4637087700       -5.2348525761
 O         3.4922000085       -1.1829131414       -2.3773075365
 O         1.0540907392        0.6985892856       -3.6293177034
 C         2.3313092484        2.8963607530       -2.4611860577
 C         2.6291091570        2.5723291119       -0.9798257978
 C         3.5881827439        3.5186145687       -0.2010177842
 C         2.8727930519        4.8765606234       -0.0439590053
 C         3.4072375522        5.9818877073        0.8499719484
 O         2.1136284752        1.5860401403       -0.4473945070
 O         1.8618930974        5.0262153396       -0.6966435478
 C         3.9843438582        2.8882415336        1.1534083136
 C         4.8871362835        3.7942810720       -1.0411224586
 H       -10.4279055422        4.2689043736        6.3809542798
 H        -9.6337301001        4.8376849663        7.7630320796
 H       -10.9825135175        5.7474169776        7.0692457247
 H        -8.7043243763        3.9825074756        2.6183262080
 H        -7.1421149242        3.1326543554        3.1389334625
 H        -6.6262358586        6.3578169088        4.8303081592
 H        -7.5664375518        5.9385635668        3.3805752005
 H        -6.3797348520        4.8815993130        3.8703600862
 H        -7.7858071494        3.8444656919        7.1821450371
 H        -6.3728766061        3.8601385272        6.1809524917
 H        -6.8341698897        5.2711190380        7.1162332888
 H        -9.6687656885        1.5310825783        3.2226602028
 H        -9.3158394119        2.1038001123        1.7290856159
 H        -6.2498481588        2.2728939085        0.2588368283
 H        -5.5314932006        0.8518828613        0.7224511584
 H        -6.9517194415       -1.7905902955        2.6813543738
 H        -5.9305436227       -0.8557138329        1.5672294412
 H        -6.9644512997       -2.1968252279        0.9819429052
 H        -9.4527637228       -1.7285285214        1.6041741572
 H        -9.9449055112       -0.0214445182        1.9668690834
 H        -9.7260382147       -0.6665205115        0.2482292443
 H        -5.1781476741        2.1199519324       -1.7557781582
 H        -6.0991944283        0.7519405848       -2.1702180572
 H        -2.4104792101       -1.5706042601       -3.2609604813
 H        -0.6026226757       -1.3253400946       -3.1429355139
 H        -3.3861956992        0.5160559045       -3.9377655920
 H        -1.8797230763        1.3952494352       -3.7398294551
 H        -3.5865793857        2.1949321131       -3.6897491408
 H        -1.4813491813        2.4735953169       -1.5429332197
 H        -3.0977817970        2.9698530755       -1.5739727131
 H        -2.3374428017        2.0453632519       -0.0911068343
 H        -1.4098617049       -2.4315624086       -0.5365133014
 H        -2.3852502823       -3.0846092198       -1.8212468094
 H         1.9234263587       -6.4204010408       -0.6610759139
 H         1.9085786374       -4.8237192086       -1.2840474042
 H        -2.2558815500       -6.4820318876       -1.8785470581
 H        -2.3919446371       -5.1976447039       -2.9878344016
 H        -2.6920224746       -4.8714723232       -1.2934912455
 H        -0.6538411695       -6.3706971967       -3.6074187966
 H         0.7207882329       -5.3111213079       -3.7856790979
 H         0.7691286718       -6.7044295649       -2.7720099790
 H         3.2241389081       -5.1878284666        0.8699214218
 H         1.7129546450       -5.4340409401        1.7911132114
 H         4.9974305637       -0.7786262867        2.9923675910
 H         5.6461973383       -2.2944107379        2.6063483455
 H         0.9954944070       -2.7500999306        3.6128497528
 H         0.8220497477       -1.4536700076        2.3543064275
 H         1.8498507514       -1.2827549337        3.7929883167
 H         3.9926507010       -3.1190987396        3.9525920818
 H         2.8221874968       -4.3449640296        3.8197828719
 H         4.1229700831       -4.3814332201        2.6059328880
 H         5.1602830261       -0.6893647158        0.0896134839
 H         6.2494437176        0.0993284216        1.3004301341
 H         7.0779928416       -2.8001187488       -3.4797870463
 H         5.8265409111       -3.2302554553       -2.3057622287
 H         8.1767931225        0.7965138030       -0.9238445289
 H         9.3992972520       -0.0309198746       -1.7263148346
 H         9.3699910791       -0.0932172657       -0.0283244171
 H         9.3333245174       -2.4356549283       -2.1656224634
 H         9.5895996488       -2.6577151745       -0.4672345689
 H         8.3141722337       -3.5956509665       -1.2594054523
 H         4.8104064372       -2.7925985748       -4.6992277411
 H         5.7375933525       -1.1833725459       -4.4488774266
 H         4.0945562379        1.6233770060       -3.0797532597
 H         3.4585969304        2.4852556077       -4.4570219786
 H         4.8232338530        0.5805179214       -5.2877366654
 H         3.3659638284        1.0514325487       -6.0457167440
 H         4.0941905819       -0.6339340996       -6.4343658264
 H         1.4013991123       -0.9274145415       -6.0037713127
 H         2.3095501055       -2.3566091498       -5.7682337889
 H         1.0494245459       -1.6937349701       -4.4180755891
 H         2.7298691824        3.8897519671       -2.5241087475
 H         1.2643087671        2.8647990655       -2.6149630819
 H         4.5050706518        5.8819823151        1.1592389425
 H         3.2335245515        7.0195909353        0.6329624300
 H         3.0075363397        5.7683774648        1.8316041531
 H         3.3891820762        1.9722851490        1.2632768975
 H         3.7503919564        3.4658085290        2.0480529103
 H         4.9852529495        2.5694306103        1.1313144398
 H         4.6168954572        4.3668029514       -1.9152174377
 H         5.5703469193        4.3410996117       -0.4089215359
 H         5.3562134352        2.7820522605       -1.3218871641
 Na        1.5450611660       -0.6958874819       -1.0450830873
