155

 C       -10.0158950078        5.1796314006        6.9770493274
 C        -9.2740826575        5.6861186365        5.8065563312
 C        -8.0919779500        4.7452033193        5.1606707979
 C        -8.7831757654        3.5945246698        4.3592668995
 C        -8.2938696286        3.2367107281        2.8460210943
 C        -7.0377152613        5.5289256936        4.3811005811
 C        -7.4613160912        4.0571247483        6.3499732193
 O        -9.4912244377        6.6835642963        5.2372325969
 O        -9.5738330616        2.8249558126        4.8905884477
 C        -8.8692942712        1.8407042929        2.3875230274
 C        -7.8873351342        0.6820276752        2.4175412982
 C        -7.8409210538       -0.3958857740        1.2446072224
 C        -7.2823393838        0.1798277159       -0.1412237703
 C        -6.0041746625        0.9532289654       -0.0775132774
 O        -7.1733545155        0.4066486672        3.3314948315
 O        -7.9483705818        0.1041539153       -1.1915253952
 C        -6.8086140250       -1.5051573807        1.6133685655
 C        -9.2489038324       -0.9285186139        1.0426223965
 C        -5.4384961963        1.2634446657       -1.4137685336
 C        -4.1511408202        0.4374343910       -1.6695964410
 C        -2.7263017722        1.2069094117       -1.9152089384
 C        -1.4764813106        0.1613891576       -1.5929379354
 C        -1.5197376129       -1.2249877255       -2.4009694724
 C        -2.5622821386        1.7200191864       -3.4222323817
 C        -2.5887183108        2.4696147200       -1.1434178740
 O        -4.1618470727       -0.7483931872       -1.5037078872
 O        -0.6870872219        0.3782122128       -0.6758128168
 C        -1.4423314537       -2.5732128624       -1.5157053039
 C        -0.4781672051       -3.5638941453       -2.1185975767
 C        -0.6065848051       -5.1187642671       -1.8979899849
 C        -0.0261509406       -5.5129889568       -0.4257328382
 C         1.5309655776       -5.6112731351       -0.2214032850
 O         0.5508257790       -3.0625211284       -2.6385275851
 O        -0.7314453332       -5.6138805455        0.5463214001
 C        -2.0583790660       -5.4584238826       -2.0073695952
 C         0.2186472557       -5.7471808813       -3.0300513986
 C         1.9616716889       -4.9828107779        1.1499406266
 C         2.0744229293       -3.5199451116        1.1689726208
 C         2.6758430734       -2.7303288555        2.3103607999
 C         3.5248480240       -1.6300503703        1.6116422465
 C         5.0720850944       -1.7455416216        2.0090058121
 C         1.5562975665       -1.9529068642        3.2626291129
 C         3.5457349340       -3.6599998428        3.2307998713
 O         1.6831957792       -2.9428705537        0.1898186619
 O         3.2008087207       -0.7577227142        0.8664258859
 C         6.1004548995       -0.8276177465        1.2571010100
 C         7.3236423039       -1.6235701891        0.6452049225
 C         7.7591033685       -1.3191500792       -0.8342216586
 C         6.5182585806       -1.0551704905       -1.7804256727
 C         5.7401236171       -2.2934410780       -2.4731311469
 O         7.8821247794       -2.5087904193        1.2490651785
 O         6.1282142782        0.1083448994       -1.9481938006
 C         8.6582867781       -0.0674465519       -0.8202681669
 C         8.6735203924       -2.3845374625       -1.4653837035
 C         5.1909855127       -1.7013452143       -3.7495030554
 C         3.8689133355       -0.9860586619       -3.4467593832
 C         3.0686947312       -0.4109856058       -4.5800463674
 C         2.1963420041        0.7652708726       -3.9605886597
 C         2.8470738183        2.2016354653       -3.5952451041
 C         3.9327460246        0.1696566368       -5.7648412250
 C         2.0692845934       -1.5028694454       -5.0732583406
 O         3.3765013063       -1.0768887146       -2.3560040597
 O         0.9902961304        0.6150134674       -3.8276223479
 C         2.0428374306        2.9164562701       -2.4613170560
 C         2.6127793342        2.4959646186       -1.0825333399
 C         3.5033388000        3.4761689626       -0.1815651130
 C         2.8294055486        4.8833324508        0.0914381871
 C         3.7517506372        5.9515227459        0.5778875187
 O         2.3953779134        1.3897423645       -0.6775508308
 O         1.6767426185        5.1463932501       -0.1650700772
 C         3.7447403352        2.8333145247        1.1755842380
 C         4.8005213289        3.7462105753       -1.1123624990
 H       -10.3255446120        4.1438143648        6.7172378847
 H        -9.3975910384        5.0417893061        7.9715679238
 H       -10.9894716396        5.6433167964        7.1727961468
 H        -8.6225035723        4.0378703576        2.2513568750
 H        -7.2059668778        3.1323947451        2.8309507238
 H        -6.4535478286        6.1491995970        5.1678492768
 H        -7.6387210784        6.2051865815        3.6758785421
 H        -6.2832255588        4.9996649197        3.7922725922
 H        -8.2738076788        3.5175138828        6.8592592215
 H        -6.7829585503        3.2213834275        6.0606021882
 H        -6.8623698586        4.6670903285        7.0390581587
 H        -9.6524843657        1.6170744522        2.9676498076
 H        -9.1941685071        1.8599168727        1.3601415903
 H        -6.1363845194        1.8659650115        0.5117946617
 H        -5.2447045080        0.3795544075        0.5413372302
 H        -6.9600881689       -2.0809216996        2.4648929252
 H        -5.8225149484       -0.9997329398        1.7377356579
 H        -6.7218922272       -2.1487999799        0.7198593387
 H        -9.7509760069       -0.8681470160        2.0315752190
 H        -9.8403946294       -0.1753558481        0.4507418414
 H        -9.1563476866       -1.9047629247        0.5971009583
 H        -5.3784660438        2.3057263348       -1.5258638736
 H        -6.1409654800        0.9610987058       -2.1992086482
 H        -2.4214735987       -1.1028572571       -3.0890698501
 H        -0.6926443127       -1.1397822917       -3.0540129363
 H        -2.7130701537        0.8624650900       -4.0606463571
 H        -1.6674564863        2.2942534529       -3.6231015444
 H        -3.4264611192        2.4180795632       -3.5722767683
 H        -1.7447522535        3.1316482362       -1.3924776948
 H        -3.5438715988        3.0285675250       -1.3335803499
 H        -2.5687533674        2.2461698284       -0.0828528133
 H        -1.0956236489       -2.3389990540       -0.4596062642
 H        -2.3962708428       -2.9492265639       -1.4744285013
 H         1.8120072691       -6.6139147602       -0.1807494553
 H         2.1756360831       -5.1983043915       -0.9852217241
 H        -2.1511731679       -6.5396685045       -1.9576810241
 H        -2.5973707980       -4.9991656730       -2.7810345069
 H        -2.3882519698       -5.2072390401       -1.0368209164
 H         0.1915169374       -5.2434411662       -4.0112653681
 H         1.3080524753       -5.6303819040       -2.8337953475
 H         0.0416368328       -6.7458630873       -3.1447671714
 H         2.9025289317       -5.4632678582        1.3951009941
 H         1.2277579071       -5.3407806312        1.9366374651
 H         5.2747245101       -1.6529841396        3.0925699482
 H         5.5023187643       -2.7187972960        1.8257675488
 H         0.6039045724       -2.5442227656        3.4043173530
 H         1.4291061486       -1.0193773799        2.6730402572
 H         1.9425746886       -1.7042453381        4.2594735323
 H         4.4331898947       -3.1159572107        3.6300085423
 H         3.0817055455       -4.1742181052        4.0634217488
 H         4.0325688833       -4.3547467470        2.5699350794
 H         5.5600697017       -0.4955719742        0.3919687593
 H         6.3565375477        0.0440787522        1.9514357707
 H         6.2763624818       -3.2207250534       -2.7309775126
 H         4.9214916845       -2.6908424228       -1.8284697250
 H         8.1971062223        0.7677139157       -0.3025087231
 H         9.0197774353        0.3854394120       -1.8036228162
 H         9.5447072253       -0.2281084058       -0.2841461325
 H         8.9806784226       -2.1094533825       -2.5191780594
 H         9.4791740088       -2.6432811497       -0.8412028958
 H         8.2670726273       -3.3181876355       -1.4942520239
 H         5.0974466829       -2.5572387782       -4.5131607144
 H         5.9718632024       -1.0365121320       -4.0463716372
 H         3.8701422735        2.0441071109       -3.4427122107
 H         2.7990658702        2.8683740877       -4.5026182500
 H         4.4015551535        1.1562215057       -5.4187903930
 H         3.1839898641        0.1261523949       -6.5060489751
 H         4.7971206486       -0.4869491772       -5.8408840409
 H         1.2478187255       -0.9109846787       -5.6412474832
 H         2.5796712902       -2.2065928326       -5.7100849680
 H         1.7900225444       -2.0587512849       -4.2049427455
 H         2.0433439525        4.0489203512       -2.5700266391
 H         0.9592611673        2.6111000643       -2.4130568245
 H         4.5684339450        5.5657311888        1.2023725935
 H         4.1636327991        6.6322861823       -0.1322137160
 H         3.2425594531        6.5333657544        1.3062927157
 H         3.5809901978        1.7163750648        1.0705733184
 H         3.0213023197        3.1394138960        1.9030396350
 H         4.7468775611        3.0793265816        1.5965467568
 H         4.5098005222        3.9560582090       -2.1193901358
 H         5.2686761763        4.5737204146       -0.6229985040
 H         5.5052896015        2.8618721350       -0.9952821709
 Na        1.4575354730       -0.7425861713       -1.2302507429
