155

 C       -10.0697827057        4.9965756185        6.9100609962
 C        -9.2358700490        5.4852623597        5.6766630531
 C        -8.1108821967        4.5221987753        5.1670781106
 C        -8.8537864813        3.4964680726        4.1309195803
 C        -8.2269111116        3.1114074355        2.7832246653
 C        -7.0860151434        5.4624596894        4.4519159056
 C        -7.3467620160        3.6658395350        6.2066679159
 O        -9.5525274706        6.5188022918        5.0351334537
 O        -9.8468181580        2.9681864796        4.5361435985
 C        -8.8489693765        1.8438983771        2.2294069900
 C        -7.8972787487        0.5960898123        2.4149235853
 C        -7.8409003229       -0.4276423374        1.2752440434
 C        -7.2344208571        0.2078324656       -0.1181878713
 C        -5.8213502250        1.0076450358        0.0226968936
 O        -7.0980782749        0.5412334731        3.3543400069
 O        -7.7615151010        0.1364418076       -1.1709906389
 C        -6.9809052605       -1.6073635941        1.6608534892
 C        -9.2330500081       -0.9946184735        0.8474839317
 C        -5.3475422092        1.3742566120       -1.4636246134
 C        -4.0860303947        0.4870323965       -1.6766576573
 C        -2.7396190081        1.2241986294       -1.8334141213
 C        -1.4792751462        0.1830855999       -1.6350310861
 C        -1.4939013619       -1.1910971508       -2.4819241661
 C        -2.5977258605        1.5819485844       -3.2950889256
 C        -2.5157639395        2.3375126183       -0.7888337764
 O        -4.0475460366       -0.7289931911       -1.5686665981
 O        -0.6259160512        0.5091503125       -0.8511208984
 C        -1.3850102405       -2.3521996656       -1.5165279309
 C        -0.3107752251       -3.3102759702       -1.9929350909
 C        -0.5506831071       -4.8227428688       -1.8410033271
 C        -0.0750577985       -5.4643415250       -0.4795719278
 C         1.4037152246       -5.5815400008       -0.1482580660
 O         0.6389856531       -2.8104953755       -2.5089398880
 O        -0.8794043589       -5.7423126377        0.3905755956
 C        -2.0675596877       -5.2704699748       -1.9567055112
 C         0.1782157735       -5.6644883275       -2.9745103572
 C         1.8851614773       -4.9944787893        1.1979890549
 C         2.0173708064       -3.5384575559        1.1704403760
 C         2.6468030739       -2.8138181421        2.2912777708
 C         3.7499624025       -1.7893040829        1.6910651050
 C         5.2981035712       -1.6986394756        2.1806924667
 C         1.4946334873       -2.0464014816        2.8604310581
 C         3.2129908449       -3.6468259880        3.5113458764
 O         1.5701757774       -2.9313183134        0.2007830632
 O         3.3310525154       -0.9321689911        0.9176990650
 C         6.2162824520       -0.7309867519        1.2292552739
 C         7.3780707361       -1.5546333998        0.6008913425
 C         7.8689877165       -1.1262114598       -0.9354379092
 C         6.5966032365       -0.8261599253       -1.8055145923
 C         5.9648073576       -2.0568585949       -2.3989497508
 O         7.8638556705       -2.5484413934        1.0903577270
 O         6.1574781845        0.3015724203       -1.8019592489
 C         8.6950666065        0.1581287020       -0.8525722908
 C         8.6249590958       -2.3425984639       -1.4172872236
 C         5.1314426805       -1.7223959647       -3.7136768069
 C         3.8389840597       -1.0891625974       -3.3341804827
 C         3.0050771324       -0.3555140812       -4.5376547739
 C         2.0427520942        0.7933043885       -3.9127377619
 C         2.6039207004        2.2359386961       -3.7161479484
 C         4.0567561852        0.1959234467       -5.6715251064
 C         2.0954591040       -1.4822257387       -5.1683498739
 O         3.3056071378       -1.1669595411       -2.2192162951
 O         0.9380422343        0.5223200052       -3.5772125308
 C         1.9818866468        2.9351830050       -2.4722337365
 C         2.5705075247        2.4890833453       -1.0993933058
 C         3.5144863708        3.3734644476       -0.3055551218
 C         2.7931471988        4.8228125403       -0.0189304156
 C         3.6449744270        5.9598261711        0.5014550176
 O         2.3782084004        1.3555163708       -0.6688398079
 O         1.5938893679        4.9834468081       -0.0760080145
 C         3.7830931070        2.7920580903        1.0928014878
 C         4.8823771341        3.5089540135       -1.0308652789
 H       -10.4212540690        3.9734042993        6.8630315026
 H        -9.4890060493        5.0288640698        7.7747323579
 H       -10.9696445100        5.5212667351        7.1027317395
 H        -8.4122764747        3.9777248587        2.0346063217
 H        -7.1351406979        3.0414615102        2.9419813386
 H        -6.6084074190        6.0911727746        5.1063887074
 H        -7.5450032079        6.0516733286        3.7070610608
 H        -6.2679205321        4.8237916094        4.0814569737
 H        -7.8663343849        2.8244288626        6.6016716341
 H        -6.4094878948        3.2868637774        5.8427941407
 H        -7.0878366049        4.3481614639        6.9878098674
 H        -9.8239236637        1.6787937822        2.8437061008
 H        -9.1055236862        1.9626097877        1.1765231348
 H        -6.0620007410        1.9682151194        0.5765546358
 H        -4.9232284966        0.6396909261        0.4974807270
 H        -7.5127450487       -2.1593607600        2.5055741797
 H        -6.0141694080       -1.3733127241        2.0449172891
 H        -6.8959042123       -2.2399551632        0.7839508887
 H       -10.0833932105       -0.5951802885        1.3694473452
 H        -9.3500261371       -0.8027645700       -0.2012833744
 H        -9.0776113970       -2.0726635373        0.9209633585
 H        -5.0890190349        2.4797543197       -1.5398246531
 H        -6.0377774787        1.2469016230       -2.2945607670
 H        -2.3359438343       -1.1675075454       -3.0936514135
 H        -0.5893506357       -1.1489636479       -3.1866550478
 H        -2.7526808365        0.6823655634       -3.8594122434
 H        -1.5651058572        1.9479204613       -3.4525512550
 H        -3.2565132065        2.4290226636       -3.5612750735
 H        -1.4262813592        2.5004213808       -0.6834898936
 H        -3.0034308133        3.3002724950       -1.0278977708
 H        -2.9226024712        2.0367977025        0.2014188747
 H        -1.0219045850       -1.9839544542       -0.5687246012
 H        -2.4364166333       -2.7342750249       -1.3490540978
 H         1.6476860067       -6.6902750694       -0.1759725333
 H         2.0606271924       -5.2456312970       -0.9671051858
 H        -2.1868698023       -6.3188581749       -1.7830484131
 H        -2.4202126352       -4.8525834446       -2.8893962259
 H        -2.5710635211       -4.8432066039       -1.0805124347
 H        -0.2511012443       -5.6739919484       -3.9531905036
 H         1.1810988815       -5.2741932840       -3.1592377293
 H         0.3412819748       -6.7031999665       -2.6221325574
 H         2.7988336657       -5.4902634845        1.6480093642
 H         1.0874460149       -5.1973282066        1.8892325316
 H         5.3706245593       -1.3046261997        3.1812540782
 H         5.8070266661       -2.6855411623        2.2733607220
 H         0.7954649365       -2.7353963801        3.2195695814
 H         1.0604520239       -1.4127460615        2.0820282314
 H         1.8790685903       -1.4718971692        3.7169612028
 H         3.1838158152       -3.0650556139        4.3949810558
 H         2.6033351928       -4.5615750501        3.6912633398
 H         4.2694775415       -3.9663642944        3.4623066853
 H         5.5282824400       -0.2940316311        0.4127628140
 H         6.5808398401        0.0658868262        1.7756510118
 H         6.7135654669       -2.8411842118       -2.5867159175
 H         5.3121946118       -2.5652912123       -1.6646227179
 H         8.3808621602        0.9108212697       -0.1183989045
 H         8.7835085336        0.6514726310       -1.7577201630
 H         9.7664210035       -0.0263817602       -0.5563720649
 H         8.7460039640       -2.4043312347       -2.4699463671
 H         9.6254628178       -2.4075297125       -0.9073269469
 H         8.2542271950       -3.3722231877       -1.0552234361
 H         4.9356366202       -2.5518399921       -4.3669411658
 H         5.7098062408       -0.9143492525       -4.2819815447
 H         3.7536452446        2.0850533093       -3.7431323946
 H         2.3988988579        2.8042650744       -4.6179790111
 H         4.8032985223        0.6116230846       -5.1366069969
 H         3.3649091849        0.7779308201       -6.2909358711
 H         4.3771135764       -0.6546316480       -6.3003765616
 H         1.6892187895       -0.9421683282       -5.9088558643
 H         2.6987289078       -2.4101880305       -5.5169975327
 H         1.3404648353       -1.9065258294       -4.4292742102
 H         2.1428190940        3.9681175224       -2.5211908003
 H         0.9340033193        2.8597307366       -2.4342400229
 H         4.2049300275        5.8474506195        1.4442078791
 H         4.3887628022        6.1442873462       -0.3082572491
 H         3.0843854792        6.9127387677        0.6090920771
 H         4.4492600281        1.9991940747        0.9594745659
 H         2.8665721457        2.3611784289        1.5786580330
 H         4.1704920755        3.5176331263        1.7596279671
 H         4.7192859582        4.0736660561       -1.9818983182
 H         5.6605091666        3.9060174405       -0.3513347049
 H         5.1013792638        2.4968309273       -1.2453915286
 Na        1.3959263614       -0.7133380035       -0.9669979132
