155

 C       -10.6948325279        4.2551608977        6.3778075937
 C        -9.5523703090        4.9041776650        5.5275548915
 C        -8.4724729749        3.9548743749        4.8652071551
 C        -9.2405126048        3.2273018264        3.7601026100
 C        -8.7301524064        3.1665515674        2.2684720096
 C        -7.2906297698        4.8206217541        4.3491980359
 C        -7.8925048028        2.9215655976        5.9120606102
 O        -9.3369247952        6.1066017399        5.3438531138
 O       -10.3073664931        2.7315898016        4.0014518822
 C        -9.1277993964        1.9359499919        1.5790530556
 C        -8.3786119759        0.6842881505        2.0505672710
 C        -7.8689149471       -0.4810140740        0.9163450427
 C        -7.0495138084        0.1118237348       -0.2917106445
 C        -5.9060878064        1.0347914504        0.1656632687
 O        -8.0902903405        0.4601121927        3.2074754356
 O        -7.3006089789       -0.1083966652       -1.4184735526
 C        -7.1304961460       -1.5777343225        1.6628194240
 C        -9.2261281659       -1.0437220660        0.3326685862
 C        -5.0283712256        1.3715048586       -1.0889170038
 C        -3.8174646269        0.4767859278       -1.0590052597
 C        -2.3917870798        1.1988201027       -1.3415362533
 C        -1.3870968753        0.0052914119       -1.3317923025
 C        -1.4580368416       -1.0170869201       -2.4273689860
 C        -2.5916396833        1.8086206125       -2.7615221660
 C        -2.0296463704        2.3284242086       -0.4116780026
 O        -3.9417987351       -0.7351816144       -1.0703704440
 O        -0.3853592255        0.1211212164       -0.6765239383
 C        -1.5917698400       -2.4367395444       -1.9446820818
 C        -0.4269609079       -3.3632224319       -2.2442485270
 C        -0.5828644610       -4.9107895497       -2.0019983800
 C        -0.1356872191       -5.1435925232       -0.5521311305
 C         1.4274396588       -5.0154809616       -0.2300895687
 O         0.7074061987       -2.9631258218       -2.5097255362
 O        -0.9608416729       -5.1614933975        0.3194358014
 C        -2.0772597243       -5.4383082197       -2.0874076632
 C         0.2282369107       -5.7143936776       -3.0489094650
 C         1.8684054994       -4.6802111166        1.1719409260
 C         1.6664250791       -3.1950899111        1.4646491463
 C         2.5565231268       -2.4896131921        2.5959745668
 C         3.8018291447       -2.0649172067        1.7113985410
 C         5.1928261147       -2.1701338031        2.3260919516
 C         1.7120505077       -1.1625843371        2.9473355372
 C         2.9109735922       -3.3644546259        3.8430890511
 O         0.8261928932       -2.4818541115        0.8468767439
 O         3.7133727925       -1.6899928432        0.5770821810
 C         6.0623934636       -1.0325933181        1.6556415870
 C         6.5985485055       -1.5078312988        0.3070551080
 C         7.5778810073       -0.5431537331       -0.5983955532
 C         6.7574468881       -0.3460874060       -1.8945914205
 C         6.7867216603       -1.5915533439       -2.8054210059
 O         6.3486333800       -2.6042617403       -0.1121944756
 O         6.3964747957        0.7966882545       -2.1567689141
 C         7.8933869965        0.7593489595        0.1608319654
 C         8.8784827636       -1.3617806726       -0.6852259453
 C         5.7755293151       -1.4053973222       -4.0142822391
 C         4.4222603767       -1.1241111383       -3.4496698161
 C         3.4627736458       -0.4820564894       -4.5536872556
 C         2.5406470331        0.4915234411       -3.7740785407
 C         3.0770198174        1.8349914135       -3.2672013412
 C         4.2247704329        0.2834375768       -5.7027189054
 C         2.6088595762       -1.5888460274       -5.2069608628
 O         3.9916762870       -1.4154352785       -2.3715333034
 O         1.4221982378        0.0987656987       -3.3576615325
 C         2.2561557632        2.6890903751       -2.3108793672
 C         2.8299401286        2.4367470183       -0.8330393629
 C         3.6242950012        3.5695296039       -0.2071493985
 C         2.7776340883        4.8680489307        0.1151316407
 C         3.4180542713        6.2774537591        0.3749022614
 O         2.7317916613        1.3358197245       -0.3193255737
 O         1.5741756132        4.8421646901        0.1213020923
 C         4.1555951308        3.0236125896        1.1782564146
 C         4.8141477041        4.0042954322       -1.1196209106
 H       -11.2938252025        3.6093979310        5.7124430770
 H       -10.4188878681        3.6229595669        7.1255659725
 H       -11.2377061652        5.0401948426        6.8309754683
 H        -9.0839331029        4.0317349372        1.7115189083
 H        -7.6010707767        3.3386195531        2.2070217667
 H        -7.1718292799        5.6353655648        4.9797860834
 H        -7.4302236720        5.0332981620        3.3329394348
 H        -6.3577343363        4.2708543539        4.3407646764
 H        -8.7088232621        2.4607293543        6.5082867853
 H        -7.2851729215        2.1749149482        5.4638757800
 H        -7.2797513027        3.5198213752        6.6483107336
 H       -10.2197860051        1.6222748296        2.0300184750
 H        -9.1679568928        1.9481053446        0.4415072188
 H        -6.3626156501        1.9646235561        0.4156279932
 H        -5.4027391968        0.5393671455        1.0180685985
 H        -7.8660147679       -2.0018361663        2.3789858859
 H        -6.2158782797       -1.2914317597        2.2049631015
 H        -6.8861779773       -2.4193273371        1.0523482502
 H       -10.0194255076       -0.2863394364        0.3412912233
 H        -9.1665575771       -1.3803326223       -0.6955739178
 H        -9.6250492503       -1.9003099990        0.9411396130
 H        -4.6684315666        2.3538998712       -1.3441239995
 H        -5.6565840225        0.9203537159       -1.9429452686
 H        -2.3630749120       -0.8125645731       -3.0680050050
 H        -0.5896550333       -0.7846165454       -3.0198972408
 H        -3.1190193432        1.1571625186       -3.4907992791
 H        -1.5684936655        2.1400298898       -3.0383981078
 H        -3.2164192285        2.6521633383       -2.6334421682
 H        -0.9508641096        2.5730791325       -0.2703912508
 H        -2.4913003750        3.2592823696       -0.7238374784
 H        -2.4207978148        2.0447209974        0.6233395443
 H        -1.8852461897       -2.5067359643       -0.9116399581
 H        -2.5215572182       -2.8877797990       -2.5167066857
 H         1.9521091070       -5.9757609797       -0.5614768894
 H         1.8244713842       -4.1764118151       -0.8393586897
 H        -2.0558340668       -6.4699613863       -2.1871868881
 H        -2.5379002137       -5.0392925821       -2.9727798716
 H        -2.5354329867       -5.0129597845       -1.2335671132
 H        -0.2962289806       -6.0413220830       -3.9385431766
 H         0.9996245210       -5.0723750305       -3.4205501994
 H         0.8033045606       -6.5769049990       -2.6018099006
 H         2.8708770584       -4.8560585717        1.4640488579
 H         1.1346554286       -5.2282650641        1.8392194367
 H         5.3036348581       -2.0552573114        3.4276528086
 H         5.5018717844       -3.1554443805        2.0046569062
 H         0.8148899329       -1.4796255108        3.4212625045
 H         1.5594677279       -0.6828122611        2.0196217446
 H         2.2817941927       -0.5387233957        3.6008274531
 H         3.6642376554       -3.0116336430        4.5280771908
 H         2.0160486730       -3.3550277471        4.4981032664
 H         3.0998165139       -4.4070760712        3.6339669007
 H         5.4946886560       -0.1230314794        1.3865444538
 H         6.9864461774       -0.6190980140        2.2126398422
 H         7.8001696469       -1.7002073299       -3.2373681189
 H         6.5441636919       -2.4668668215       -2.1872247755
 H         8.3600990502        0.5436554777        1.1361175061
 H         7.0432219143        1.4235898680        0.3205155961
 H         8.6697654944        1.2732827991       -0.4654916105
 H         9.6174946367       -0.7534495738       -1.1380713100
 H         9.3319027104       -1.5189166053        0.3296743412
 H         8.7788412169       -2.3973535880       -1.1876379506
 H         5.7302107205       -2.1084209854       -4.8291723204
 H         6.1491455082       -0.5556697803       -4.5878007460
 H         4.0069988774        1.6033492669       -2.7979636877
 H         3.2831610800        2.4818199543       -4.1789497011
 H         5.0734266928        0.6777453302       -5.2365719372
 H         3.5868237851        1.1118077290       -6.0591396725
 H         4.5223315088       -0.5587492234       -6.3031091346
 H         2.4150091882       -1.3161904993       -6.1497786512
 H         3.2317562235       -2.5547670865       -5.3467224017
 H         1.6537884779       -1.7135396602       -4.6360832651
 H         2.3471045442        3.7334930423       -2.5902530046
 H         1.2423110425        2.4228056212       -2.1895888874
 H         3.9333296340        6.2209159692        1.3056932397
 H         4.2288019637        6.6110159320       -0.3356065398
 H         2.6166991785        7.0821257483        0.4333862431
 H         5.0374706922        2.4342439566        1.0427762716
 H         3.3886162970        2.3439044396        1.5598905315
 H         4.3901834459        3.8215130981        1.8887917103
 H         4.4740252424        4.3185421887       -2.1453906041
 H         5.3402850477        4.8571026265       -0.5974807865
 H         5.4599689627        3.1776070839       -1.1064103785
 Na        1.7854088891       -0.8613777877       -1.0292653065
