155

 C         4.0566395766       -1.0617224893       10.4949021395
 C         4.6730289983        0.2667741271       10.1472803207
 C         6.0602007917        0.2240772799        9.4080366048
 C         5.9147607011       -0.1946159474        7.9060596859
 C         4.5490482183        0.3536786616        7.1509206000
 C         6.4769366299        1.7373242109        9.4250861315
 C         7.0383443876       -0.5863363987       10.1853269074
 O         4.1395458189        1.3396759807       10.4403984773
 O         6.6602472675       -1.0291213419        7.3967623148
 C         4.3273981725       -0.5595781846        5.9259122329
 C         3.5890959079        0.1281519612        4.8550645446
 C         3.0163885971       -0.7221310613        3.6317811224
 C         1.6043058799       -1.2704568387        4.0288620402
 C         1.0996668061       -2.4678152049        3.3032684298
 O         3.4162593401        1.3343065144        4.9376647133
 O         0.9864609491       -0.7320449084        4.9245662177
 C         2.8482257506        0.4076927869        2.4438133088
 C         4.0700900915       -1.8336750528        3.3488912552
 C        -0.3117569186       -3.0026421148        3.7520762767
 C        -1.3489778629       -2.7983322625        2.6037481398
 C        -2.8720248358       -2.7564580135        2.7687636591
 C        -3.3937231178       -1.1430166920        2.9265937845
 C        -4.4225081976       -0.7679982963        3.9164549823
 C        -3.5770534047       -3.2706837213        1.5697172366
 C        -3.2713341511       -3.5829053352        4.1033813630
 O        -0.9398335270       -2.6864018894        1.4701664049
 O        -3.1039294617       -0.3433350307        2.0849302471
 C        -4.4649856736        0.7343769324        4.2974198540
 C        -3.4041234785        1.2347405625        5.1985212415
 C        -3.1006380477        2.7732269094        5.2559991498
 C        -2.7886300551        3.2095513996        3.7813724689
 C        -1.3500746653        3.2495198847        3.3292326200
 O        -2.6566381487        0.4949921915        5.7772590660
 O        -3.7137771667        3.3115356518        3.0020269163
 C        -4.3952653771        3.5174910267        5.7749070473
 C        -1.8793943468        2.8478615126        6.2461346962
 C        -1.1231645223        3.6800890452        1.8334581114
 C        -0.6621651772        2.4988535340        1.0467479361
 C         0.1922337577        2.7348974021       -0.1440918694
 C         0.1984499129        1.3896981943       -0.9957940964
 C        -0.1104834700        1.1307455023       -2.5333904220
 C        -0.4180581635        3.8306830920       -0.9995142040
 C         1.6860769777        3.1966088758        0.2423069148
 O        -0.8809208210        1.3626352607        1.4518397122
 O         0.5840542737        0.3970371074       -0.4346793082
 C        -0.3046494913       -0.3461635225       -2.8549212631
 C        -1.8089025336       -0.6568402730       -2.8212504438
 C        -2.5635464926       -0.7479242875       -4.2968491325
 C        -2.0798248580       -2.0082589510       -5.0117889915
 C        -2.5766206655       -2.6256641363       -6.3113227152
 O        -2.4002613835       -0.9693333371       -1.8183990374
 O        -0.9582940851       -2.4347039870       -4.7552456896
 C        -4.1156449739       -0.8149153899       -3.8370365503
 C        -2.0756079313        0.4417141073       -5.3191677758
 C        -3.9648596698       -2.2982207171       -6.7482185882
 C        -4.1955992502       -2.6355675261       -8.2682727586
 C        -4.2578138530       -1.2954474808       -9.1003329319
 C        -2.9981293767       -0.3514285191       -9.0334630344
 C        -1.8485545996       -0.6423778135       -9.9057201432
 C        -4.4650334348       -1.7104255490      -10.6436088901
 C        -5.5145022420       -0.5345126587       -8.5306750038
 O        -4.3655870780       -3.7553521262       -8.6843740952
 O        -3.1517837995        0.6295250676       -8.3065601411
 C        -0.4821107647       -0.4955375759       -9.0720980402
 C         0.6659200839        0.1320771664       -9.7937560223
 C         1.8785520606        0.5022234815       -8.9430504351
 C         1.5917844069        1.6381978203       -7.9156710572
 C         2.4000972922        2.9510799457       -8.1056404525
 O         0.6285056138        0.2979289218      -11.0633689139
 O         0.7509752121        1.5530870078       -7.0467920150
 C         2.1894692142       -0.7662573595       -8.1051672557
 C         2.9756407763        0.8157452328       -9.8570102914
 H         3.3466792587       -1.3656060155        9.7818973346
 H         4.7936198559       -1.8060809885       10.6383997304
 H         3.4843677370       -0.9476255588       11.4641613906
 H         3.7993165616        0.2980346140        8.0106991943
 H         4.8681514419        1.3538966900        6.8035585916
 H         6.8402672036        1.9914328710       10.4042838484
 H         5.7917097531        2.4626867282        8.9423651958
 H         7.4175073481        1.8249391782        8.7693980613
 H         6.8164811505       -1.5542212439       10.2641873150
 H         7.9969206368       -0.6653122607        9.6758577725
 H         7.2229932346       -0.2045528200       11.2428268838
 H         5.3795937241       -0.5828850106        5.5313342449
 H         4.1087223294       -1.6121524790        6.1843846400
 H         1.0562078533       -2.0813210758        2.2261344186
 H         1.7477008651       -3.3147401598        3.2922358854
 H         2.1303444462        1.0194790643        2.9859200685
 H         2.2456568196       -0.0820078869        1.6172092104
 H         3.7437309415        0.8246167526        2.0870112756
 H         4.3024790536       -2.3472345614        4.3102015551
 H         3.5631257848       -2.5615125104        2.6699447501
 H         5.0200847386       -1.3418546110        2.9921166641
 H        -0.6991493385       -2.4815403230        4.7094735484
 H        -0.2143961223       -4.1079024977        3.9604171114
 H        -5.2783796563       -0.9377895069        3.3438397448
 H        -4.5745702314       -1.3854580808        4.7848773901
 H        -3.1301197676       -2.9555882359        0.6256971967
 H        -4.5341423146       -2.8243538641        1.4552176068
 H        -3.6296479517       -4.4149626928        1.5560165528
 H        -2.7003089276       -4.4710108627        4.1120851585
 H        -3.0429348520       -3.0388709197        4.9720374402
 H        -4.3032563491       -3.7021709734        4.2001288637
 H        -4.5484653489        1.2821086456        3.3525089123
 H        -5.3533169530        0.8874727923        4.9569795223
 H        -0.9659580228        3.9200033477        4.0979067465
 H        -0.9235499710        2.2484018150        3.4035394435
 H        -4.7505382760        3.1829609777        6.7161505614
 H        -5.2302643603        3.2856845260        5.1496172755
 H        -4.1160411111        4.6019070094        5.7608935005
 H        -1.3589590728        3.8034169557        6.2830321541
 H        -2.2801875255        2.7292589887        7.2594604962
 H        -1.0116262978        2.2409348327        5.9792288643
 H        -0.4565363605        4.6285643538        1.7041528943
 H        -2.1191208729        3.9743079276        1.4485750993
 H        -0.9882201350        1.6338410954       -2.8944465641
 H         0.7784152381        1.5621566288       -3.0892131100
 H        -0.5155028794        4.8647169797       -0.5158998143
 H        -1.2991330514        3.4688328967       -1.5129975751
 H         0.3443844184        3.9983281684       -1.7748775681
 H         1.7026036183        4.1889786267        0.7357062998
 H         2.3127798871        2.6024058305        0.9881449474
 H         2.2470539312        3.2132988992       -0.6667978020
 H        -0.0928385171       -0.4170886428       -3.9166695741
 H         0.2567073699       -1.1069090362       -2.3738664268
 H        -1.8540437228       -2.2670651591       -7.0287253469
 H        -2.4192131365       -3.7468847895       -6.2289917275
 H        -4.7647257748       -1.0342565657       -4.7429410254
 H        -4.3986101083        0.0213806882       -3.2253211767
 H        -4.2269816316       -1.6684176311       -3.1491247541
 H        -2.4151475700        1.4033049264       -4.9720760592
 H        -0.9992999761        0.3448443086       -5.5417662026
 H        -2.6947731845        0.2947349016       -6.2916343381
 H        -4.0511671065       -1.2364915555       -6.7063308674
 H        -4.7118671178       -2.7653072762       -6.1488813099
 H        -1.9223396612       -1.6140882480      -10.3072782109
 H        -1.7872443911        0.1868715339      -10.6127588630
 H        -5.5274014043       -2.0346148562      -10.6394452843
 H        -3.7664198627       -2.5745078446      -10.8491274618
 H        -4.2219484966       -0.8344159893      -11.2438614190
 H        -6.3540672614       -1.1977370670       -8.4470580783
 H        -5.2326514605       -0.0400036712       -7.5558709218
 H        -5.6208132215        0.2545404317       -9.2537557610
 H        -0.6557057338        0.1477676310       -8.2006562987
 H        -0.1075063639       -1.4313758681       -8.7467191939
 H         1.8211202471        3.8813240239       -7.9239294267
 H         3.2048211697        2.9876016641       -7.3897201247
 H         2.8652527278        2.9866443681       -9.0575696722
 H         1.9977461524       -1.6275267206       -8.7555468451
 H         1.5047304684       -0.7060155231       -7.2602514455
 H         3.1913220330       -0.7470316048       -7.7188039185
 H         3.2228938971        0.0470683225      -10.5041431188
 H         2.7307965703        1.5422464906      -10.5705671096
 H         3.8065011173        1.0090070622       -9.2530446258
 Na       -1.4013870375       -0.4350385880        0.4493476413
