155

 C        -9.4895413272       -5.6174846729        0.7775122642
 C        -8.7615352441       -5.0934974446        1.9570092812
 C        -7.7442134724       -4.0041605503        1.7569720116
 C        -6.4874112213       -4.7371878895        1.4231796496
 C        -5.7864869246       -5.5692404055        2.5461740934
 C        -8.1543848859       -3.0903999454        0.4650389892
 C        -7.5410380103       -3.0366630289        2.9417736599
 O        -9.0518873262       -5.4287830589        3.0821474864
 O        -6.1401023858       -4.8779252345        0.2365129720
 C        -4.2512946229       -5.3980300066        2.6106371842
 C        -3.6973484666       -4.0069663010        2.7446642292
 C        -2.2059346925       -3.8262642939        2.4241747967
 C        -1.9611754540       -3.6038822886        0.8595456039
 C        -2.8826083082       -2.6555459055        0.0993953055
 O        -4.4035491774       -3.0893740739        2.9780267564
 O        -0.9698384067       -4.1543746091        0.3086274261
 C        -1.7688483134       -2.5963559224        3.3187314554
 C        -1.3102827463       -5.0626388117        2.8191066054
 C        -2.4246892511       -2.1799563282       -1.2949267659
 C        -1.1746921463       -1.1990841935       -1.3170869907
 C         0.1350926824       -1.7166215827       -1.9796487714
 C         0.0933595329       -1.0541793011       -3.3798763795
 C        -0.1042215711       -1.9630926899       -4.6104039580
 C         1.3322903359       -1.2206776969       -1.2374507013
 C         0.2319510402       -3.2470006075       -2.1083594841
 O        -1.4510243010       -0.0565909800       -1.0477543778
 O         0.2350388414        0.1255653376       -3.4512052462
 C        -0.7721773556       -1.3079396106       -5.7955454904
 C        -2.3010101826       -1.2783552031       -5.7866136280
 C        -3.0963921708       -0.2786868186       -6.7879844896
 C        -3.5408940876        0.9196187581       -5.6652189366
 C        -4.5467819642        0.5374272140       -4.6523615219
 O        -3.0457105738       -2.0025654946       -5.0949368314
 O        -3.0004807684        2.0314364920       -5.7354110293
 C        -2.2423329485        0.3972193954       -7.8771214100
 C        -4.4175244709       -0.8184514972       -7.3215716707
 C        -5.0060669788        1.7405886165       -3.8479180362
 C        -3.8291751494        2.2963350188       -2.9553911240
 C        -4.0365463769        3.6700110223       -2.0569759579
 C        -2.7032821179        4.2647597963       -1.5198057487
 C        -2.0568116782        5.4673579854       -2.1507694678
 C        -4.7508551646        4.6775857383       -3.0964142332
 C        -5.0083040351        3.3317362752       -0.9049333344
 O        -2.8031775651        1.6493062062       -2.8045806575
 O        -2.1060041020        3.7349602459       -0.5665139628
 C        -0.8111425558        5.9217993061       -1.3464950294
 C         0.1765223770        4.7088674144       -1.2901762446
 C         0.9291380324        4.3951905406        0.0005024543
 C         1.2926672153        2.8401453960        0.0679791016
 C         2.3906900458        2.3902757894        1.1510019605
 O         0.4769915326        4.1494327053       -2.3399377219
 O         0.8029268794        1.9878715534       -0.6681716303
 C         2.3466535071        5.1126346395       -0.0642315145
 C         0.2936296017        4.9081244935        1.3500631886
 C         3.7255392323        2.0811592400        0.5182467712
 C         4.1892686954        0.6020734127        0.6929779985
 C         5.6949841812        0.4840459780        0.4645096249
 C         6.4045438198        1.0807459915        1.8351431783
 C         7.3458386376        0.2337352579        2.6032265655
 C         5.9867283149       -0.9522057030        0.1490239308
 C         6.1352020003        1.3949942349       -0.7364220681
 O         3.4821764640       -0.3370106982        0.9719866852
 O         6.1029894439        2.2602840546        2.0914945877
 C         7.2639373545        0.3805300354        4.1216189395
 C         8.6965752188        0.6494080619        4.5925964488
 C         9.0840316947        1.1334174717        6.0491485683
 C         8.5735011745        2.5019243280        6.4176681768
 C         8.2166753161        3.6240333363        5.4017160573
 O         9.5839583568        0.5787456659        3.7048329089
 O         8.5427790923        2.7747671295        7.6382991705
 C         8.4488171020        0.1067525256        7.1214619577
 C        10.5817888575        1.1953477249        6.3490182778
 H       -10.5439774925       -5.4375198457        0.9391682771
 H        -9.3035375459       -5.1626201782       -0.1931901952
 H        -9.2497926308       -6.6805793157        0.7452023077
 H        -6.1598838655       -5.2914061690        3.5715790976
 H        -6.0390632939       -6.5995076152        2.4806736948
 H        -7.4387645914       -2.2805934727        0.4988522655
 H        -9.1431138389       -2.6944531655        0.5026130804
 H        -8.1075883354       -3.6521765729       -0.4468335694
 H        -8.2036146323       -3.3443682627        3.7745960536
 H        -6.5081066154       -2.9454461963        3.1515676869
 H        -7.8879694609       -2.0253827177        2.5897263054
 H        -4.0434425351       -5.8847419956        3.5364779355
 H        -3.6788008384       -5.9396483459        1.8408036901
 H        -3.7781966489       -3.1976167235       -0.0792612961
 H        -3.1517256933       -1.9216262703        0.8757927551
 H        -0.7686677767       -2.4015201178        3.5072796079
 H        -2.3823151461       -2.8038455165        4.1513658019
 H        -2.0804385769       -1.5404368354        2.9641440174
 H        -0.5140804418       -5.2555864415        2.1178695527
 H        -0.7961991390       -4.8239021833        3.7545482737
 H        -1.8987539968       -5.9528088198        2.9554721286
 H        -3.2332671564       -1.5679506734       -1.7531166796
 H        -2.3280998397       -3.0462148710       -1.8676328765
 H         0.9246219123       -2.1193194118       -4.9945582661
 H        -0.5912394262       -2.8681225755       -4.2828741611
 H         2.2437473676       -1.6077180852       -1.5635281764
 H         1.2493807051       -1.3390888027       -0.1525029734
 H         1.4020205243       -0.1689448985       -1.3125427242
 H         0.1275186859       -3.6457862310       -1.1092019281
 H        -0.6146568969       -3.8230153467       -2.5700486232
 H         1.1820562365       -3.4839344830       -2.6124625330
 H        -0.4063736365       -0.3464167785       -5.7532703699
 H        -0.3775599151       -1.6097698775       -6.7856308371
 H        -5.4313552657       -0.0112211379       -5.0407860563
 H        -4.2043738833       -0.1879008737       -3.9847868675
 H        -1.7752625459        1.2403587155       -7.4059590603
 H        -2.8219644006        0.6746176515       -8.7431965783
 H        -1.3183743733       -0.1056277724       -8.1789125585
 H        -4.7471647746       -0.1391990392       -8.0568143831
 H        -4.3684753747       -1.8733597868       -7.6992174707
 H        -5.0820136525       -1.0041080000       -6.4910299837
 H        -5.8365065258        1.5381215338       -3.1239182076
 H        -5.3788710560        2.4748473758       -4.5832452267
 H        -1.7514881920        5.2328566788       -3.1407240475
 H        -2.7633303164        6.3252075724       -2.2840701277
 H        -4.1163221750        4.8705795758       -3.9054989134
 H        -5.1868132011        5.5912224566       -2.6855459689
 H        -5.5242925086        4.2451374563       -3.6459180093
 H        -5.7422681484        4.1291700962       -0.6914280191
 H        -5.7179086612        2.5388599244       -1.0075305629
 H        -4.4243841733        3.0216260525       -0.0616581801
 H        -0.4479681265        6.8020347210       -1.9580825331
 H        -1.1086919300        6.3250100246       -0.4320959242
 H         2.4385865559        3.2005756147        1.9526171516
 H         2.0502065864        1.4559299266        1.6014981355
 H         2.2917200522        6.1791795740       -0.0716484576
 H         2.8968448009        4.8047718884       -0.9364868759
 H         2.9212822621        4.8400686797        0.7525085684
 H         0.7882727770        4.5373580220        2.3485830025
 H         0.3380335704        6.0166257580        1.4099488661
 H        -0.7283443588        4.4361526903        1.5306627920
 H         4.5061289051        2.7343725464        1.0791291715
 H         3.6733908878        2.1505815829       -0.5379407357
 H         7.3493778157       -0.8245540739        2.3651016815
 H         8.3342640198        0.6628169266        2.2987330053
 H         5.4999114065       -1.6377861100        0.8218145990
 H         7.0978121061       -1.0734218166        0.1591157761
 H         5.8172826503       -0.9779302118       -0.9314931424
 H         7.1901503714        1.2010335311       -0.9970092584
 H         5.5722639620        1.1106436508       -1.6318145316
 H         6.0608681177        2.4437840102       -0.4115103916
 H         6.7585780884        1.3699258033        4.4290687596
 H         6.8681987957       -0.5635887847        4.6010572595
 H         8.5649952858        4.6167105045        5.7693700319
 H         8.5918747656        3.5178726219        4.3626001536
 H         7.1250742075        3.7214990389        5.3215698388
 H         8.8015499564        0.3488314867        8.0928966009
 H         8.7270231196       -0.8979693938        6.9095448281
 H         7.3723858584        0.1985239919        7.1377981622
 H        10.7130519042        1.5204460946        7.3540123265
 H        11.0285718054        0.1864615783        6.2069252316
 H        11.0001923386        1.9313211128        5.6480643906
 Na       -0.5756833796        1.8530843191       -2.3222721964
