155

 C       -12.5399124834        4.0855552277        4.7395130762
 C       -11.1153694938        3.5800975898        4.8952112045
 C       -10.7470591630        2.0348537719        4.9317054623
 C       -10.7690681623        1.4068819992        3.4838329586
 C       -10.6489592884        2.3402200496        2.2279250337
 C        -9.2805778060        1.9019856134        5.4391845440
 C       -11.7200773969        1.1417223271        5.8299259480
 O       -10.2143301758        4.4143443698        4.9961031477
 O       -10.9805627402        0.2166256933        3.3574795766
 C       -10.3681399064        1.5362883975        0.9416936382
 C        -8.8355443599        1.3743339140        0.7070632645
 C        -8.2704806416        0.0430505884       -0.0975536343
 C        -6.9208007610        0.4567940447       -0.7602848117
 C        -5.7690833441        0.4076126979        0.2130894548
 O        -8.0547587916        2.2052640378        1.1148922986
 O        -6.9025743857        1.0349817767       -1.8017715336
 C        -8.0491094158       -1.1316535832        0.9438957221
 C        -9.3244800984       -0.4462814381       -1.1748761942
 C        -4.5100831826        1.0440377209       -0.2910083048
 C        -3.2267900614        0.3127026400        0.2107700664
 C        -1.8358889814        1.1186811090        0.1081439534
 C        -0.6616062414        0.1880900415       -0.5381834014
 C        -0.8605156220       -0.2544208905       -2.0126885367
 C        -2.0670047644        2.3046353848       -0.8220667594
 C        -1.2675082452        1.6112533812        1.4624324656
 O        -3.2653917396       -0.9193904147        0.4410565343
 O         0.3788877885       -0.0318892499        0.0332372294
 C        -1.1251204674       -1.8014182357       -1.9718915747
 C        -0.0360122312       -2.7854423516       -2.4444832662
 C        -0.3073024760       -4.3239249032       -2.1538229681
 C         0.2412969521       -4.6342143137       -0.6974248242
 C         1.7567165419       -5.1109284968       -0.6275503422
 O         1.0437938393       -2.4145610292       -2.8583440112
 O        -0.4377881654       -4.4811559970        0.2575063051
 C        -1.7993662584       -4.8146630902       -2.1493926401
 C         0.2503916212       -5.1364901459       -3.3109100336
 C         2.3930572118       -4.6284432628        0.6228207823
 C         2.3532487297       -3.1748478747        0.7351731287
 C         2.8362021752       -2.3373823202        1.9558670633
 C         3.8382248109       -1.1284958864        1.6186084925
 C         4.9568657866       -0.6870764176        2.7192718378
 C         1.5921632722       -1.6043382108        2.6269764228
 C         3.3735314783       -3.3135902354        3.0811170381
 O         1.9187025668       -2.5726456743       -0.2488057631
 O         3.9080659731       -0.5997162442        0.5486377745
 C         6.2301089698       -0.2268925911        2.0519584941
 C         6.8118345254       -1.5229239417        1.3334892518
 C         8.2594865053       -1.1815779560        0.4506903908
 C         7.9840914807       -0.7954714611       -1.0750691087
 C         7.4315879514       -1.9247480863       -2.0101873021
 O         6.3428505956       -2.5930558032        1.0483259967
 O         8.1988145945        0.2984392104       -1.4385770174
 C         9.1254639663       -0.0353116573        1.0759218986
 C         8.9384070467       -2.5615975836        0.5811671368
 C         6.8858349386       -1.2954253114       -3.3215757950
 C         5.3465800024       -0.8963695062       -3.0194332772
 C         4.5429320198       -0.3247863362       -4.3022157671
 C         3.5429272603        0.8485051564       -3.8493412312
 C         4.1637552067        2.0524713792       -3.0861035314
 C         5.3583093017        0.0881653332       -5.5040247434
 C         3.7856831201       -1.6039676736       -4.7543237541
 O         4.7219922606       -1.0888760973       -2.0154155460
 O         2.3201047835        0.6856738650       -3.8553489379
 C         2.9951110674        2.9901404124       -2.7559171663
 C         2.7609658642        2.9003501545       -1.2198636685
 C         2.5204617005        4.1358241316       -0.3363660585
 C         1.2199463171        5.0083062418       -0.8953113456
 C         0.7171935855        6.1326174549        0.1046245844
 O         2.6439343126        1.8007492439       -0.7494529098
 O         0.6668623910        4.7419210980       -1.9190856428
 C         2.2735794534        3.7731090961        1.1927786053
 C         3.7273009563        5.1107279558       -0.4443930683
 H       -13.2394841706        3.4713157586        4.2505008751
 H       -12.9573760621        4.2579106837        5.8054227431
 H       -12.5026637964        5.1039753812        4.2845514998
 H       -11.6916985808        2.6312041785        2.1704144545
 H        -9.9767990690        3.1125990254        2.4773327771
 H        -8.9413256630        0.9267130343        5.6729441671
 H        -9.2516299526        2.2934789710        6.4384863751
 H        -8.5374753041        2.2839388666        4.7483569262
 H       -12.5663254227        0.7760920002        5.2204175613
 H       -11.1873620658        0.2338893355        6.0618738357
 H       -12.1225336913        1.6370599787        6.7164733795
 H       -10.9532454846        0.7104590461        1.0923159860
 H       -10.8209464030        2.1157624087        0.0979758412
 H        -6.1169122985        1.1096801258        1.0078917382
 H        -5.5111303184       -0.6638581488        0.5257777105
 H        -8.9735868085       -1.5049567911        1.2875571493
 H        -7.4170976520       -0.7436944862        1.7815323444
 H        -7.5770881312       -1.9854897101        0.4696223918
 H        -9.4595081344        0.4535028445       -1.7895043672
 H        -8.8607763097       -1.2578172888       -1.7576498384
 H       -10.3013945274       -0.6449686547       -0.6607350792
 H        -4.4291730550        2.1198485511        0.0522821688
 H        -4.5183222844        0.9777994259       -1.3413074451
 H        -1.7447397725        0.2810164744       -2.4669993993
 H        -0.0142000267       -0.1228857217       -2.5886773441
 H        -2.5148580797        1.9934377713       -1.6730266191
 H        -1.1139809648        2.8625703940       -0.9790441746
 H        -2.7064728927        3.1015291377       -0.3759733951
 H        -0.3461941509        2.1300874616        1.2236234791
 H        -1.9154920082        2.3157819500        2.0056789904
 H        -0.9019958150        0.7077408102        1.9880584243
 H        -1.2397997870       -2.1507192453       -0.8702578527
 H        -2.0211089028       -2.1238342903       -2.4935417612
 H         1.8495472271       -6.1704926452       -0.6919067269
 H         2.2152098326       -4.6775314246       -1.5300731075
 H        -1.8469811891       -5.8494157140       -2.2491058023
 H        -2.4348667086       -4.3626744530       -2.9035692758
 H        -2.3114865394       -4.5780102184       -1.2464790615
 H        -0.4219090872       -4.9037863665       -4.1483205977
 H         1.2930629160       -4.8430657486       -3.5289860045
 H         0.2170618832       -6.1101766599       -2.9823891664
 H         3.4727242267       -4.9425778985        0.5695066369
 H         2.0035974882       -5.0589950478        1.4999330110
 H         4.5002388962       -0.0530714498        3.4492460749
 H         5.3244516916       -1.6051007320        3.2500914622
 H         0.8972600562       -2.3384608253        2.7926367090
 H         1.2814120509       -0.8838861062        1.9098456193
 H         1.9256948584       -1.2340418087        3.5893542568
 H         3.6060987720       -2.7618253482        3.9960170526
 H         2.6691878221       -4.0641089464        3.3275290610
 H         4.2575126064       -3.8480572234        2.9570011701
 H         5.9739276299        0.3845486950        1.2396724040
 H         6.9637773185        0.3629881410        2.6434152728
 H         8.2920131306       -2.5790537739       -2.3117520801
 H         6.7310710152       -2.4825689481       -1.2938616484
 H         8.6462877288        0.8636054686        1.5476046914
 H         9.7503255373        0.3625463142        0.2450912184
 H         9.7895503687       -0.3597021982        1.9244191218
 H         9.8609924171       -2.5700998279        0.0706400720
 H         9.1590917308       -2.7481615622        1.6279541026
 H         8.3846466425       -3.4700681719        0.2562428928
 H         6.9893612107       -2.0340060451       -4.1389954937
 H         7.4583303387       -0.3985762622       -3.6838694884
 H         4.7749762490        1.7451976265       -2.1662012515
 H         4.9682011150        2.4193695265       -3.7887122441
 H         6.0705575831        0.8588425086       -5.5780461677
 H         4.6890516437        0.3520399602       -6.3631176804
 H         6.0228766668       -0.6757219101       -5.8879474355
 H         2.8307400328       -1.5318288455       -5.3238797263
 H         4.3893559858       -2.2537827798       -5.2815751506
 H         3.2920885087       -2.1258668732       -3.8299430615
 H         3.1503839898        3.9981543247       -3.1278155802
 H         2.0570277685        2.5851833578       -3.2302255154
 H        -0.4107111727        5.9988672843        0.0507374024
 H         1.0760324473        6.1188400347        1.1228449572
 H         1.1053917035        7.0616299699       -0.3568842519
 H         2.9631019468        2.9784333105        1.4689428101
 H         1.2395488166        3.3750527491        1.3334583065
 H         2.5225304902        4.5765105721        1.8538842551
 H         3.5568032600        5.7584052753       -1.3297476408
 H         3.8507083418        5.8480504881        0.3703438233
 H         4.6350725863        4.5737919503       -0.6066141020
 Na        2.3893142828       -0.3936207820       -1.4450973833
