155

 C        -9.7622709616       -5.6058884252        0.9881127618
 C        -8.9221449948       -4.8992518679        2.0467193944
 C        -7.7536443197       -3.9345552797        1.6729405984
 C        -6.4602855460       -4.7602362320        1.4558985976
 C        -5.9231517499       -5.4759602487        2.6327457090
 C        -8.0797329536       -3.0548045720        0.4574114957
 C        -7.5320443637       -2.9417419925        2.9117383643
 O        -9.2051038091       -5.1407370975        3.1837977549
 O        -5.7774986023       -4.6706774639        0.4584463796
 C        -4.3670785565       -5.5559009172        2.7210091919
 C        -3.7065965713       -4.1672298714        2.6395155458
 C        -2.1792149734       -3.8979727694        2.4334080233
 C        -2.0460453759       -3.6603837863        0.9108777795
 C        -2.9127668148       -2.4558526037        0.2613832445
 O        -4.4027694011       -3.1270028363        2.7898954996
 O        -1.3046223380       -4.3057779012        0.2886188863
 C        -1.6939582596       -2.6556756279        3.1463263095
 C        -1.3448134244       -5.1186875000        2.8556558938
 C        -2.4408037159       -2.3139338122       -1.2134642587
 C        -1.2853526802       -1.3954168878       -1.3810602077
 C         0.1198094581       -1.7249166996       -2.1924202439
 C        -0.0027389536       -1.1003416003       -3.6623090932
 C        -0.1162736054       -2.0579309186       -4.8360194742
 C         1.2076650745       -0.9358604469       -1.3889118245
 C         0.4296758151       -3.2288520981       -2.1032456110
 O        -1.4546716334       -0.2632969210       -0.9775817548
 O         0.0917498088        0.1320292411       -3.8413480382
 C        -0.8429040043       -1.1771483312       -5.9490918336
 C        -2.3737127793       -1.1721959521       -5.8278981559
 C        -3.1862122814       -0.2648778238       -6.6926488253
 C        -3.6836394729        0.9847402796       -5.7529407095
 C        -4.6230209255        0.6005644333       -4.5817349016
 O        -2.8004329829       -1.9774843433       -5.0083902304
 O        -3.2394754971        2.1151120230       -5.9072394154
 C        -2.3950544175        0.3010914940       -7.8544739414
 C        -4.4668991118       -1.1241365816       -7.2575653102
 C        -5.0534034765        1.8115939588       -3.7024042623
 C        -3.8195558152        2.3852024651       -2.8354285277
 C        -4.1169643491        3.7320785679       -1.9694488793
 C        -2.7306870890        4.1500394591       -1.3523616004
 C        -2.1132172887        5.4142944691       -1.8823158628
 C        -4.8234811021        4.8504772498       -2.8504537568
 C        -5.0408468110        3.3963481921       -0.7788637644
 O        -2.7447264381        1.8460476853       -2.9408931927
 O        -2.2508232568        3.4062922485       -0.5543640669
 C        -0.8165635210        5.7447424528       -1.1629604822
 C         0.2502371809        4.7150670906       -1.1858652321
 C         1.1811662171        4.5207427934        0.1063854992
 C         1.3113112310        2.8795602645        0.2945663858
 C         2.4280901921        2.3358123370        1.3144438299
 O         0.3964993023        4.0013437040       -2.1667172114
 O         0.7139600879        2.0919690197       -0.3630661516
 C         2.5438587068        5.1882526035       -0.2551880334
 C         0.4885757556        4.9981271858        1.4139874751
 C         3.7031489991        2.1441438468        0.3670465958
 C         4.2818013826        0.6848127657        0.4525347096
 C         5.8353747501        0.3812540456        0.3006471870
 C         6.3875708708        0.9856109719        1.6138755073
 C         7.3276814389        0.0833242692        2.4899763973
 C         6.2460317226       -1.1289907894        0.1215751937
 C         6.4094155433        1.2075941974       -0.8760763114
 O         3.5940709569       -0.2113121971        0.8747208023
 O         6.1404217873        2.1057845021        2.0014561331
 C         7.5050394539        0.5707422020        3.9967248155
 C         8.9464206831        0.7707672601        4.5283928031
 C         9.0783128882        1.2013107628        6.0590561981
 C         8.6018249515        2.6475783760        6.4546785169
 C         8.3141393755        3.6133763928        5.3133835972
 O         9.8703546769        0.4667956516        3.8733497933
 O         8.4945996098        2.9453824367        7.5907962078
 C         8.3812930016        0.1176350968        6.9251264357
 C        10.6133029118        1.2007577371        6.2237243836
 H        -9.9599786066       -4.8585652473        0.2040170140
 H        -9.1959370082       -6.3785725610        0.4564816541
 H       -10.6448562600       -6.0792160620        1.4250722662
 H        -6.2690886070       -5.3036600021        3.6245953143
 H        -6.3435026549       -6.5268275140        2.4300437559
 H        -7.2618104777       -2.3508726990        0.4094265314
 H        -9.0620857939       -2.5579000156        0.5688651379
 H        -8.1676139663       -3.6425703495       -0.4434786642
 H        -7.2693830767       -3.5735683913        3.7725259650
 H        -6.6885087278       -2.3336602924        2.5506000796
 H        -8.3531835274       -2.3174859500        3.1912377026
 H        -4.1907585166       -6.1947375223        3.6217850483
 H        -3.8166915623       -6.0815885379        1.9151209480
 H        -4.0299810556       -2.5540494956        0.3175057623
 H        -2.7283545590       -1.5324200581        0.8240963622
 H        -0.6284215372       -2.3566014822        2.8912075436
 H        -1.9686130431       -2.6386194459        4.2506557653
 H        -2.1330965031       -1.8113540811        2.7312450889
 H        -0.3292261959       -4.8044984196        3.1121282643
 H        -1.7247490545       -5.5085880572        3.7937272499
 H        -1.3997728351       -5.9055342794        2.0646952497
 H        -3.2337371033       -1.8115873426       -1.7287360387
 H        -2.2711319929       -3.3140916625       -1.7210768553
 H         0.7858575505       -2.5223231750       -5.2192329725
 H        -0.8981908597       -2.8110085471       -4.5660633030
 H         2.2045697741       -1.2830399352       -1.8266772979
 H         1.2501058586       -1.1450601801       -0.2844855476
 H         1.2614798791        0.1690395180       -1.4142793028
 H         0.6418891224       -3.5881789536       -1.0740984652
 H        -0.3870337930       -3.8228231556       -2.5556089554
 H         1.2948771688       -3.3727260283       -2.7598394912
 H        -0.3339759514       -0.1961256176       -6.2372613027
 H        -0.7427617047       -1.7777200289       -6.8420638851
 H        -5.4648317649        0.0166820775       -4.8661159084
 H        -4.0560672324       -0.1328154781       -3.9132439571
 H        -2.1657311520        1.3328459478       -7.6866998692
 H        -2.9832290358        0.1516751843       -8.7222245376
 H        -1.4216643499       -0.0805554770       -8.0003672698
 H        -5.2638111037       -0.3567274680       -7.4912222983
 H        -4.2324234703       -1.5965147389       -8.1780754829
 H        -4.7824023104       -1.9071312091       -6.5607140083
 H        -5.8816429285        1.6742452486       -2.9771966479
 H        -5.4248238029        2.5319796863       -4.4628594673
 H        -1.9466089163        5.1945710777       -2.9683950683
 H        -2.7445256138        6.2655748735       -1.8984075937
 H        -4.5400030207        4.9178955398       -3.9460911550
 H        -4.7986629992        5.8048780966       -2.3404630699
 H        -5.9033385400        4.6262491225       -2.9299951992
 H        -5.2770419823        4.1085635462       -0.0412727879
 H        -6.0913688420        3.2396042893       -1.0497873400
 H        -4.6327392680        2.4689888779       -0.3372909969
 H        -0.4066455234        6.6092943234       -1.6607102511
 H        -1.0906312665        6.1804164543       -0.1405506961
 H         2.4903359318        2.9953777320        2.1222191849
 H         2.1618971039        1.3291534935        1.6465540858
 H         2.3647046351        6.1439429172       -0.8095914383
 H         3.0917588937        4.4399611167       -0.9225686966
 H         3.2623037545        5.4119011301        0.5806511014
 H         0.9487583608        4.5512888854        2.2164214974
 H         0.6296955549        6.0630140784        1.6099916737
 H        -0.5280817807        4.6851331385        1.5789532656
 H         4.3926207956        2.9046761444        0.5280371172
 H         3.3125828570        1.9899870236       -0.7018346912
 H         7.0192428610       -0.9580880408        2.5398079466
 H         8.2651201260        0.0495013874        1.9878472426
 H         5.7340761491       -1.5593328750        1.0375889515
 H         7.3252040706       -1.3016872339        0.0845879202
 H         5.7169112288       -1.5340766680       -0.7677155293
 H         7.3168549243        0.7293979583       -1.2407139243
 H         5.7368763802        1.0127899787       -1.7070921140
 H         6.5601487776        2.2354822645       -0.6750010781
 H         7.0123837052        1.5102290119        4.1720892010
 H         7.0676822955       -0.1653737100        4.6497191619
 H         8.1951153526        4.6362004625        5.5934473160
 H         9.0672887252        3.5700787012        4.5612806471
 H         7.4164993051        3.2931234747        4.8099879763
 H         8.3817808647        0.4705158086        7.9523062594
 H         8.9732678255       -0.8049616458        6.8874578169
 H         7.3782805845       -0.1703520559        6.6580041130
 H        10.8321872934        1.2806548648        7.3275776852
 H        11.0372744868        0.2793265393        5.8985113727
 H        10.9977606559        2.0560831298        5.6817040592
 Na       -0.6536983095        1.7502143913       -2.1132095580
