155

 C       -13.8851322512        2.4665449135        2.9229923566
 C       -12.7814508205        2.2327204055        4.0218233402
 C       -12.2255696213        0.7235889250        4.2011425423
 C       -11.4740454233        0.6162917836        2.8286562667
 C       -10.0793171443        1.3422851846        2.8898815609
 C       -11.3239557805        0.4930582663        5.3828487758
 C       -13.3029005970       -0.3801046747        4.2190344079
 O       -12.4156886629        3.2162911017        4.6509268179
 O       -11.8843565365        0.0545478603        1.8328622131
 C        -9.3662429895        1.3461870177        1.5058047500
 C        -9.0130386733       -0.0362043122        1.1382081186
 C        -8.2133360316       -0.1844885073       -0.2003001239
 C        -6.8546721295        0.6334567509       -0.1313551644
 C        -5.5053106607       -0.0680675812       -0.4924102712
 O        -9.2811573854       -1.0015695736        1.8096818185
 O        -6.8559297934        1.8229815576        0.1554339031
 C        -8.2082371943       -1.6956401774       -0.4485356205
 C        -9.0574344632        0.4354847736       -1.3376564759
 C        -4.4809868371        1.0303540736       -0.9697367311
 C        -3.0697359309        0.5789399185       -0.9213463840
 C        -1.9391394667        1.5693440803       -1.3409955609
 C        -0.5786481867        0.6883609677       -1.3007815128
 C        -0.3040082423       -0.3364486577       -2.4519634872
 C        -2.1815529382        2.1016422566       -2.8295895051
 C        -1.7271500270        2.7882204646       -0.2602963687
 O        -2.7383380765       -0.5537856083       -0.5289886245
 O         0.1525331775        0.7057940426       -0.3174079168
 C        -0.0575707546       -1.7634783374       -1.8808698282
 C         0.5851994983       -2.8239498929       -2.7944053883
 C         0.5757430572       -4.4290660589       -2.3724069230
 C         0.8865438619       -4.6051827902       -0.8537705388
 C         2.3237451268       -4.4885368239       -0.4369354844
 O         1.3780394880       -2.5249570666       -3.6868711356
 O        -0.0339946302       -4.5866675341       -0.0451728050
 C        -0.8472289694       -4.9117331114       -2.6162125917
 C         1.5525173962       -5.2211990561       -3.2593252802
 C         2.5694620095       -3.9882386777        0.9682380006
 C         2.6197318351       -2.4526215084        1.0218079899
 C         2.9731503659       -1.7074872935        2.3899356743
 C         4.3043736307       -0.8035272981        2.2350974799
 C         5.5307905960       -1.0897884691        2.9937141302
 C         1.8104854339       -0.6944599518        2.7337966394
 C         3.0607646721       -2.7760056833        3.4762820983
 O         2.3872618243       -1.6649570272        0.0795093103
 O         4.3344820320        0.0449015960        1.4058471160
 C         6.8261430199       -1.0102879704        2.1721762741
 C         6.8966594683       -2.3094782182        1.4065835728
 C         8.2586228482       -2.7726103373        0.5337011953
 C         8.2533634523       -1.8883189827       -0.7801831420
 C         7.0692002068       -2.3018239611       -1.6859145085
 O         5.9480199974       -3.0326749303        1.4430949516
 O         8.9640133094       -0.9705057097       -0.9610452131
 C         9.4879234329       -2.2508617321        1.3814060559
 C         8.2053984387       -4.2841566479        0.4378986245
 C         6.7733906965       -1.2778029851       -2.7739845785
 C         5.7020247474       -0.3123374157       -2.3428633515
 C         4.8387374756        0.4861286397       -3.5047842452
 C         3.7973664058        1.3281382668       -2.6792191952
 C         4.3038330710        2.5760128781       -2.0553457281
 C         5.7965318527        1.2895109439       -4.4686812456
 C         3.9799982737       -0.5903827207       -4.2503746416
 O         5.2918571637       -0.2340825048       -1.1669461274
 O         2.7133190403        0.8468787538       -2.4155221471
 C         3.2252921664        3.6984582250       -1.9981540867
 C         2.7385887876        4.0329549104       -0.5725118065
 C         2.1135237531        5.4263686104       -0.1504187607
 C         0.8999229260        5.6784867568       -1.2014425498
 C         1.1641474709        6.8796296248       -2.2194473526
 O         2.7690980976        3.1689339235        0.3153452044
 O         0.0190316527        4.8472403265       -1.2472665802
 C         1.5509851590        5.3297487838        1.2287737811
 C         3.3686263033        6.3947125909       -0.3241628205
 H       -13.5674495353        2.2503549420        1.9082805898
 H       -14.8576875045        2.0582674519        3.2506220457
 H       -13.9860228753        3.6283795030        2.8851500411
 H       -10.1983747591        2.3707384350        3.1844501758
 H        -9.4089337195        0.9049260386        3.6131519776
 H       -10.6683891816       -0.3369376115        5.2193791985
 H       -12.0267193985        0.1806821440        6.1222234445
 H       -10.7942480976        1.4301220096        5.5064574089
 H       -14.0190421967       -0.2947736757        3.3850835269
 H       -12.8484829476       -1.3576682687        4.1330105271
 H       -13.9217101280       -0.4035373049        5.1774908587
 H       -10.0387355292        1.7003788780        0.6901798966
 H        -8.5719518203        2.1210053268        1.5018341005
 H        -4.9291943812       -0.5596348397        0.2075971745
 H        -5.7327809967       -0.8172030021       -1.3055019840
 H        -9.2628447324       -2.0182164242       -0.1219315546
 H        -7.5123996378       -2.2811478950        0.1640332454
 H        -8.1319361323       -2.0318522589       -1.4706993545
 H        -8.9817212695        1.5100402326       -1.3547700375
 H        -8.7789432881        0.0633247193       -2.2882284717
 H       -10.1262442492        0.2706587158       -1.2080264117
 H        -4.6703733006        1.9306775263       -0.3070692955
 H        -4.7539286378        1.3436443310       -1.9319579995
 H        -1.2525411321       -0.3554127278       -3.1387957263
 H         0.4735153322       -0.0722519429       -3.0922210693
 H        -2.4505632824        1.2397732633       -3.4575335349
 H        -1.2868362454        2.5205717161       -3.2707976487
 H        -2.9625098197        2.8739538144       -2.9980835928
 H        -0.6939929805        3.1799016531       -0.3635873635
 H        -2.5191424702        3.4758412892       -0.4422654912
 H        -1.8137308208        2.4604392226        0.7614074460
 H         0.7402853915       -1.5426541301       -1.1982832905
 H        -0.8764646734       -2.1617619419       -1.3093025740
 H         2.8996965024       -5.4042914097       -0.4708616264
 H         2.8120161552       -3.7272761698       -1.1442288509
 H        -0.8448065302       -5.9410095123       -2.1533828770
 H        -0.9399496621       -5.0072310294       -3.7028360379
 H        -1.6012069272       -4.2956483644       -2.0732022175
 H         2.5237575046       -5.5078023620       -2.7963935516
 H         1.1635485111       -6.1494051163       -3.6748625349
 H         1.9146882630       -4.6756168270       -4.0218894567
 H         3.5052620472       -4.3826917165        1.4940195191
 H         1.7225963089       -4.3652223065        1.5428533988
 H         5.6582151948       -0.4096061394        3.8532495922
 H         5.4323519149       -2.0687096058        3.5528411758
 H         0.9120561824       -1.3526699833        2.8990182924
 H         1.7703601826       -0.1543531575        1.7993798165
 H         2.0752430042       -0.1137945527        3.5853966362
 H         3.1408575514       -2.2002601073        4.3907817207
 H         2.1649769586       -3.4421019178        3.5092780036
 H         4.0009072764       -3.3900264253        3.3497302902
 H         6.9625558441       -0.0923024448        1.4850036957
 H         7.6231299686       -0.8054971866        2.7669995853
 H         7.2160836747       -3.2740571665       -2.1525645652
 H         6.1873347315       -2.7114471567       -1.1011522241
 H         9.3503685633       -1.1932414525        1.5667739092
 H        10.4451983932       -2.2548599233        0.8211239744
 H         9.6405190795       -2.7606009873        2.3448347143
 H         7.1450036490       -4.6134210538        0.2747855099
 H         8.8397792912       -4.5327766811       -0.4415851900
 H         8.4978379834       -4.8354053522        1.3454481287
 H         6.6240859431       -1.7671249874       -3.7478997513
 H         7.7106255793       -0.5740212532       -2.8420578710
 H         4.5926465201        2.4521714348       -1.0321534410
 H         5.3056099686        2.9916500663       -2.4192650258
 H         6.6714736199        1.4643102976       -3.8471222577
 H         5.3739532007        2.2567801748       -4.6464653656
 H         5.9318335951        0.6489472181       -5.3315999935
 H         3.9998427898       -1.4800050058       -3.6712495307
 H         3.1021735183       -0.2078550603       -4.5610680426
 H         4.6080274303       -0.8811628884       -5.1815352208
 H         3.5950671427        4.5207174488       -2.5657693628
 H         2.3319481168        3.3509131000       -2.5315610620
 H         0.7054895069        7.7862176674       -1.8309454856
 H         2.2787481080        7.0046127082       -2.3924063533
 H         0.5604919734        6.6736095056       -3.1248653025
 H         2.2607027963        5.0240076733        2.0038967163
 H         0.6731882187        4.7215069975        1.2952762970
 H         1.2080161322        6.3515100898        1.5429084301
 H         3.9308812967        6.1065345818       -1.2261150253
 H         3.1348402809        7.4662100979       -0.4879822317
 H         4.0569908427        6.2283445216        0.4694884534
 Na        2.6561159751        0.8561592643       -0.0514849838
