155

 C       -14.4686989646        2.2181068848        3.0572011037
 C       -13.4523737487        1.7976091586        4.1333329837
 C       -12.6008345824        0.3609499300        3.8546733463
 C       -11.8683881343        0.5001718279        2.4207957893
 C       -10.5018780963        1.1916406349        2.5119477892
 C       -11.5595898250        0.0766208431        4.9351329106
 C       -13.5203440408       -0.8091508194        3.7216116810
 O       -13.2442236259        2.4740974881        5.1060413748
 O       -12.4472913884        0.3089620959        1.3597819849
 C        -9.5468668481        1.0699032471        1.2858150601
 C        -8.7542631348       -0.2641144191        1.0835659326
 C        -8.1187748293       -0.4818427919       -0.3876195636
 C        -6.7533896485        0.4236635496       -0.3890236399
 C        -5.3918307909       -0.1325542711       -0.7426748416
 O        -8.5849549392       -1.1363812553        1.9075275219
 O        -6.7095526747        1.5594491417        0.1123212084
 C        -8.0179522713       -2.0155694437       -0.6066931931
 C        -9.1378038557        0.0278083038       -1.5015857713
 C        -4.2591162133        0.8598588594       -0.4391641177
 C        -3.0077599973        0.4600257056       -1.1452877008
 C        -1.8960967278        1.5987728970       -1.3855587752
 C        -0.5445478039        0.8030412393       -1.3241309895
 C        -0.1372682573       -0.1469925180       -2.4830394296
 C        -2.1908188177        2.0281821057       -2.8914445911
 C        -1.9120357308        2.7600684063       -0.4212724673
 O        -2.8160388120       -0.6429701745       -1.5809148217
 O         0.2156423900        1.0538422058       -0.4010947795
 C         0.0541027279       -1.5263977495       -1.6934517278
 C         1.0435594180       -2.5212989034       -2.3427298628
 C         0.7356465593       -4.0656365688       -1.9789960418
 C         0.7075601685       -4.1649713801       -0.3835062762
 C         2.0743853475       -4.4893478983        0.2527577404
 O         1.8339615731       -2.1945423952       -3.1859711136
 O        -0.1621085966       -4.0237902860        0.4051109627
 C        -0.7587418804       -4.3615661468       -2.4861919953
 C         1.7350098523       -5.0732381427       -2.6496545668
 C         2.2255385484       -3.7573681684        1.5897450646
 C         2.3589379053       -2.2836975077        1.3105275202
 C         2.5462838481       -1.3254315209        2.5535630872
 C         3.8256773241       -0.5264381242        2.2216393953
 C         5.2043519971       -1.0228464970        2.7224889358
 C         1.4025692274       -0.4364399414        2.9977892589
 C         2.6913257514       -2.1627411852        3.9157731435
 O         2.3644475288       -1.8304223788        0.1662412043
 O         3.8327136967        0.4479748233        1.4929001481
 C         6.4007915150       -0.8838835617        1.7080470889
 C         6.6150504170       -2.1472653785        0.9179381194
 C         7.9848458646       -2.5632390185        0.4506546374
 C         8.1016876692       -1.7695854221       -0.8134993329
 C         7.5947276050       -2.3947661677       -2.1416405482
 O         5.6654296175       -2.8740754370        0.6409148226
 O         8.8526644704       -0.7429417808       -0.8033085447
 C         9.1961713549       -2.2716920462        1.3512336284
 C         8.0666035063       -4.0701414727        0.0664140003
 C         7.3452906296       -1.2665223584       -3.1649793146
 C         6.2788229181       -0.2833392081       -2.4866929900
 C         5.2573575030        0.4048157680       -3.4961053358
 C         4.1755766755        1.2290844387       -2.6371715240
 C         4.6856037350        2.4427568648       -1.8182713304
 C         6.0226031032        1.3536937157       -4.4662258270
 C         4.4667838351       -0.6184573701       -4.2760872840
 O         6.2418188104       -0.1065058615       -1.2778954080
 O         3.0094444936        0.9780165431       -2.6636626202
 C         3.7289384178        3.6632364774       -1.6639191563
 C         2.9113672995        3.7191107335       -0.3357885304
 C         2.3987789775        5.1029139538        0.0663600790
 C         1.4546251189        5.6516066823       -1.0339824237
 C         1.0633550699        7.1346544606       -0.9720646459
 O         2.6140860692        2.8229472269        0.4061108584
 O         1.0415495285        4.9596447965       -1.9623713547
 C         1.4303158662        5.0384425168        1.3566952873
 C         3.5825975138        6.1071807224        0.2829421658
 H       -14.0866033621        1.8594803678        2.1478320354
 H       -15.4168083439        1.6166015998        3.1038881315
 H       -14.6590423629        3.2222153152        3.1604293361
 H       -10.6336514822        2.2297587911        2.7824149009
 H        -9.8693334212        0.8156243852        3.2899463699
 H       -10.7124732236       -0.4522416433        4.4372478315
 H       -12.0095515508       -0.5132429867        5.7467470760
 H       -11.2935107771        0.9300126313        5.5219836917
 H       -14.2140456363       -0.7490429705        2.9235839437
 H       -12.9619342366       -1.6822519247        3.5408271273
 H       -14.1110554185       -1.0166566866        4.6232274118
 H        -9.8424301613        1.4317470188        0.2100735767
 H        -8.7194034832        1.8682868535        1.5284243196
 H        -5.3391291499       -1.1238278012       -0.5119311294
 H        -5.2947621481       -0.3044080714       -1.8655915392
 H        -9.0638209873       -2.2974939465       -0.3499003441
 H        -7.4100439813       -2.4928594785        0.0997835874
 H        -7.8646466103       -2.2869645643       -1.6293888858
 H        -9.2978268727        1.1035267847       -1.3851267191
 H        -8.7893905077       -0.1549020208       -2.5225880095
 H        -9.9972803109       -0.6187386095       -1.4188072612
 H        -4.1048149458        0.9962397545        0.7299308191
 H        -4.6872438885        1.8090649805       -0.7182111675
 H        -0.9678972555       -0.3980197195       -3.0524463250
 H         0.7907705140        0.1985452884       -2.9965083773
 H        -2.0428964446        1.2884105490       -3.5857612750
 H        -1.4575117393        2.8354003770       -3.1998567826
 H        -3.1995858452        2.3416544780       -3.1279320523
 H        -1.3891826056        3.6518152243       -0.7930777402
 H        -2.9651320363        3.0673126018       -0.3436147951
 H        -1.5658325365        2.4386163953        0.5328850628
 H         0.4088964656       -1.4490249898       -0.6605758097
 H        -0.8918598247       -2.0298878467       -1.6494975682
 H         2.2287487062       -5.5140369951        0.4140858251
 H         2.9219335102       -4.1508522920       -0.3877944070
 H        -0.9385011183       -5.4468076109       -2.4673832180
 H        -0.9609557472       -4.0489843853       -3.4898990634
 H        -1.4365033102       -3.8695716258       -1.8356416456
 H         1.1967268818       -6.0334534774       -2.8584339226
 H         1.9846955367       -4.7121152540       -3.6698764938
 H         2.6371146377       -5.2661743664       -1.9662703279
 H         3.0774530664       -4.1346605104        2.1851771425
 H         1.4197997226       -3.9442331849        2.2287190308
 H         5.3421625777       -0.3878953703        3.6110349763
 H         5.0181520609       -2.0070014037        3.2058465072
 H         0.5780055462       -1.0690957035        3.3815981587
 H         1.0667813892        0.1615174451        2.1047912001
 H         1.8467418485        0.2545016396        3.7151600929
 H         2.9038448033       -1.4897686508        4.7188742418
 H         1.7572632895       -2.7181036748        4.1494184063
 H         3.4937174780       -2.7699716707        3.7851399135
 H         6.2539550793        0.0010456524        0.9623030021
 H         7.2367931273       -0.5881762024        2.3199453601
 H         8.2766488770       -3.0594885977       -2.6732730659
 H         6.5898186617       -2.8463165581       -1.8180770832
 H         8.9522627942       -1.6804155904        2.2106779791
 H        10.0409378060       -1.7357935453        0.8584966521
 H         9.5566451113       -3.1383203904        1.8696651284
 H         7.2761699378       -4.2818876002       -0.6518873290
 H         8.9127795473       -4.4177915313       -0.3798062797
 H         7.9243727572       -4.7323826244        0.9299770761
 H         7.0656258732       -1.5939741616       -4.1608269451
 H         8.2498890367       -0.5816955238       -3.2560185434
 H         4.7254524874        2.1610347729       -0.8113840109
 H         5.6385689852        2.8513380384       -2.0788547649
 H         6.8840915711        1.8266296180       -3.9446796802
 H         5.2613332034        2.0067243900       -4.9425880708
 H         6.5570597592        0.7351598421       -5.2090989262
 H         5.0942941126       -1.4414664621       -4.6296303793
 H         3.7330947775       -1.1070131009       -3.5140499518
 H         3.8530280211       -0.2985829993       -4.9757763139
 H         4.3401953196        4.5764012301       -1.8548312742
 H         3.0348044789        3.5487445217       -2.6048711044
 H         1.1073486123        7.3607620434        0.0912031187
 H         1.7895627155        7.7598684296       -1.5671337873
 H         0.0627602687        7.3563661128       -1.3195179972
 H         1.8504366647        4.4309232127        2.1700474014
 H         0.5277708712        4.5317404096        1.1442381830
 H         1.2027077611        6.0380068649        1.7676825564
 H         3.9890451186        6.5114730057       -0.6218053310
 H         3.2829356122        6.9349437811        0.9092834956
 H         4.4743361724        5.7497072813        0.8679082454
 Na        2.4858549939        0.5761814125       -0.3152899617
