155

 C        -9.9043226919       -4.7474997658        1.5938226237
 C        -9.4689456731       -3.9781012948        0.3722566137
 C       -10.4464823211       -4.0067683994       -0.8916958751
 C       -10.1018782290       -2.9110980960       -1.8973225555
 C        -8.8664782801       -3.0212235880       -2.7449925343
 C       -10.0648492234       -5.3811333704       -1.4950218605
 C       -11.9233473744       -3.9349770813       -0.5167459271
 O        -8.4029583701       -3.3877644443        0.2402128892
 O       -10.8533243309       -1.9435007217       -2.1596384260
 C        -8.3441032575       -1.6464931577       -3.1551644202
 C        -6.9437436720       -1.5314458548       -3.7959336310
 C        -6.3069037086       -0.1346658538       -4.1148538293
 C        -5.9269198699        0.4656385058       -2.7546921528
 C        -4.6756112476       -0.0536949008       -2.0084243231
 O        -6.2325309140       -2.4825273516       -4.0217284035
 O        -6.6976133943        1.3308789222       -2.2636172150
 C        -5.0611111106       -0.2673240072       -5.1023397060
 C        -7.3590255591        0.8501297532       -4.8266866246
 C        -4.0123311449        1.2631458489       -1.4168897932
 C        -2.6233425670        1.0435500419       -0.7840073575
 C        -1.2669439465        1.4865113875       -1.4989903030
 C        -0.0862437083        0.8095340879       -0.8702788520
 C         0.4628303156       -0.4491458778       -1.4917905327
 C        -1.4967407957        1.2772923730       -2.9906139228
 C        -0.9998463582        3.0474235411       -1.1419473832
 O        -2.5912254658        0.4832919942        0.2719928762
 O         0.3228714646        1.1601562209        0.2645311886
 C        -0.6502997588       -1.5729297470       -1.1772829427
 C         0.0176866122       -2.9497402674       -1.2593333408
 C        -0.5126734608       -4.2543536390       -0.3604255004
 C        -0.4377586036       -3.8285131199        1.0969470530
 C         0.9617556592       -3.3235511070        1.6563836311
 O         1.0446338307       -3.0388431936       -1.8701501310
 O        -1.4149675384       -3.7630133100        1.8258308230
 C        -1.9768669166       -4.5170421825       -0.8053105883
 C         0.4646221070       -5.4213422351       -0.6418799954
 C         0.8416637394       -2.3366921140        2.8238311864
 C         1.7906053950       -1.2373832767        2.8052242635
 C         2.1839388771       -0.5361369550        4.1849544774
 C         3.6738947298       -0.0724077718        3.8483907541
 C         4.8781255346       -0.7721372814        4.3516352994
 C         1.2639331175        0.7387929018        4.1869817698
 C         2.0516903478       -1.4556919947        5.4299815507
 O         2.2107388591       -0.7400976050        1.7430436221
 O         3.7700742210        0.9020267411        3.1371944636
 C         6.1622894402       -0.6785389199        3.5923373922
 C         6.1286870847       -1.6563258843        2.3615622955
 C         7.2877962006       -1.6675516631        1.2960974859
 C         6.9023971614       -0.5254566633        0.2289966209
 C         6.3263438095       -0.8081334815       -1.1110943665
 O         5.2146662687       -2.4416175282        2.3218344492
 O         7.0123959220        0.6445466982        0.6333917164
 C         8.6992431431       -1.3401118887        1.7241667644
 C         7.1987505527       -3.1498116282        0.7025860345
 C         5.8668304287        0.2766313732       -1.9363439432
 C         4.8711823286        1.2331247073       -1.1854987077
 C         5.0151244072        2.7154030185       -1.6739718785
 C         3.7176371812        3.3792199432       -1.1229557766
 C         3.8179225885        4.7386715840       -0.3798899990
 C         6.2945465940        3.1894910258       -0.9683190767
 C         5.0430272354        2.8466441412       -3.2054133024
 O         4.1423423677        0.8071037959       -0.2893424058
 O         2.6234610814        2.8208137365       -1.4130598674
 C         2.4552092623        5.3269618890       -0.1106593502
 C         1.6486522028        4.9015244780        1.1376456342
 C         0.8030823863        5.9878602609        1.9478066252
 C        -0.4035694038        6.5100402610        0.9666010115
 C        -1.5960647648        7.1998651935        1.6477486173
 O         1.5726928892        3.7465234056        1.5438358183
 O        -0.4432317185        6.3488152509       -0.2670504964
 C         0.3705278757        5.2999754804        3.2473104486
 C         1.6801082219        7.2489841018        2.2954289952
 H        -9.4544666626       -4.4303805665        2.4873407577
 H       -10.9846357792       -4.5590642812        1.7691220965
 H        -9.8279167262       -5.8357301640        1.3802869044
 H        -8.1107021200       -3.6991770885       -2.2342356311
 H        -9.1518574260       -3.6054513495       -3.6289664858
 H       -10.4938186992       -5.3493730248       -2.5509531757
 H       -10.4607576694       -6.2997728812       -0.9822949230
 H        -8.9729307814       -5.4544288364       -1.6063446048
 H       -12.1777010679       -3.5273141943        0.4444281485
 H       -12.5138792777       -3.3276125700       -1.2368290874
 H       -12.4640517580       -4.9012174044       -0.5220888317
 H        -9.0227105466       -1.3661923469       -3.9097430134
 H        -8.3612526422       -0.9937867525       -2.2809349955
 H        -4.9628916384       -0.6908130552       -1.1942175486
 H        -3.9149217273       -0.5858209213       -2.7195882189
 H        -5.0503823755        0.6021722114       -5.7765354327
 H        -5.0797234307       -1.1271400858       -5.7548814026
 H        -4.0304969543       -0.2666812832       -4.6395488814
 H        -7.2789011061        1.0376466511       -5.8841012101
 H        -8.3658549895        0.6384945807       -4.5644975520
 H        -7.1539257065        1.8722567762       -4.5386482833
 H        -4.6084900648        1.6736859212       -0.5564902420
 H        -4.0813498171        2.0689827850       -2.2599359906
 H         0.5955723050       -0.6271820671       -2.5766627361
 H         1.4038117649       -0.6846320501       -1.0603647247
 H        -2.1023160219        0.2811901394       -3.1324713745
 H        -0.5115412605        1.2185466456       -3.4876512997
 H        -1.9923966876        2.0931650956       -3.4590868389
 H        -1.9475072057        3.4616790921       -0.9892765210
 H        -0.3744969348        3.1854078668       -0.2763843346
 H        -0.4299346144        3.4398812975       -1.9710741341
 H        -1.1353049753       -1.4288396048       -0.2805838358
 H        -1.4445105279       -1.5465870079       -2.0020039259
 H         1.6829738822       -4.0768586396        1.9324929001
 H         1.2475022360       -2.6915521508        0.7729863046
 H        -2.7256169730       -4.8570074847       -0.0595333199
 H        -1.8654950595       -5.3230498673       -1.5140427679
 H        -2.4718686262       -3.6984804653       -1.4264728379
 H        -0.0632612644       -6.3262507932       -1.0120600418
 H         1.2585533251       -5.0604665168       -1.3257811218
 H         1.1500727053       -5.7158040004        0.1199524195
 H         0.8017572163       -2.9062030381        3.8041286639
 H        -0.1114742998       -1.8232539170        2.8280830367
 H         5.0697446830       -0.4190233689        5.4139949090
 H         4.6524868118       -1.7645929593        4.4284957671
 H         0.2884420256        0.6323165400        3.7912751152
 H         1.6106125746        1.6668408918        3.8415046440
 H         1.1107745588        0.8418790814        5.2023797082
 H         2.6311413442       -0.9022275703        6.1611543483
 H         0.9614483744       -1.3798290204        5.7529832291
 H         2.3211153382       -2.5028103851        5.2724063092
 H         6.3911179863        0.3045676511        3.1695323591
 H         6.9567741752       -0.9458689112        4.2204584478
 H         6.8859470499       -1.5362402376       -1.7076323695
 H         5.3972732319       -1.4101574868       -0.8793792066
 H         8.6153900295       -0.3878578246        2.2024900918
 H         9.4053234210       -1.2186481781        0.9534736135
 H         9.0587478311       -2.1396690094        2.4293462522
 H         6.1883174194       -3.4362219351        0.4846164378
 H         7.7330717702       -3.1066162488       -0.2716401881
 H         7.7165349168       -3.8356070476        1.3659181937
 H         5.4306335627       -0.0067229785       -2.8917912388
 H         6.7907033483        0.8955174799       -2.2283671519
 H         4.4932125458        4.4662135502        0.4592054630
 H         4.3338718743        5.4423744868       -1.0741390080
 H         6.4316759705        2.8608140001        0.0508981938
 H         6.3353215636        4.2338899959       -1.0110468566
 H         7.0876182401        2.7694048636       -1.4979185553
 H         4.3250261761        2.1468776273       -3.6413511687
 H         4.8251294041        3.8782621239       -3.4253640923
 H         5.9972042442        2.6635875476       -3.7316634025
 H         2.5925443072        6.4951267089       -0.0548897899
 H         1.8527186696        5.0779351732       -1.0422106575
 H        -1.3440388415        7.6599696214        2.5522620871
 H        -2.1060072348        7.7883470395        0.9587265000
 H        -2.2076915940        6.3086124051        1.8847492568
 H         1.1593322025        4.9798207733        3.8941475191
 H        -0.1502064878        4.3389110994        3.0211884201
 H        -0.2585064528        5.9214483457        3.9200196231
 H         1.8694999568        7.8892942985        1.4189979838
 H         1.1383041771        7.8024162934        3.0394504267
 H         2.6025121056        6.8582006311        2.8132050454
 Na        2.3532547460        1.4512318159        1.1357431305
