155

 C        -9.2112274106       -6.2079846976        0.4655851067
 C        -9.2572146484       -4.8051387990       -0.1878349553
 C       -10.1496187057       -4.4831603413       -1.3947569135
 C        -9.5367787501       -3.1511951505       -1.9867899094
 C        -8.0533777171       -2.9969186031       -2.4981035167
 C       -10.1673696485       -5.6621455276       -2.4588390136
 C       -11.5556015287       -4.1388944657       -0.8875013677
 O        -8.6461693241       -3.9178775006        0.3078255559
 O       -10.1728583261       -2.1375389700       -1.9532189269
 C        -7.6470532223       -1.4924004549       -2.7745666036
 C        -6.7390034176       -1.3860808631       -4.0220963816
 C        -6.5103269174        0.0481750853       -4.5169502495
 C        -5.8422900518        0.8640974408       -3.3463359963
 C        -4.5981545702        0.2532658714       -2.7311303187
 O        -6.2017388115       -2.3728666731       -4.4997222414
 O        -6.3690595779        1.8140919445       -2.8340275205
 C        -5.7233618862       -0.1240673460       -5.8634266758
 C        -7.9286984995        0.7088932895       -4.9278806780
 C        -3.7483805811        1.4447707445       -2.3656629789
 C        -2.4723096609        1.0760363492       -1.5614513414
 C        -1.0706936834        1.5015098128       -2.1218343272
 C         0.0601017929        1.1383298284       -1.1178569257
 C         0.6788206370       -0.2113582406       -1.2079688532
 C        -0.7958224562        0.8684448207       -3.5133405593
 C        -1.1470367574        3.0719442804       -2.2705243181
 O        -2.5184898664        0.4626090283       -0.4940872307
 O         0.3265152251        1.9399796058       -0.2547172460
 C        -0.2795709515       -1.4516318856       -0.7562752219
 C         0.3155955111       -2.8992278505       -0.9880183431
 C        -0.3756321511       -3.9470167512       -0.0109296557
 C        -0.0348330201       -3.6234820703        1.4561356130
 C         1.3742877948       -3.6874251949        1.8387657975
 O         1.2826479189       -3.1285989432       -1.6665105887
 O        -0.9361473442       -3.2697392072        2.1838069088
 C        -1.8980251173       -4.0710949398       -0.3343966881
 C         0.1916106757       -5.3749585598       -0.2289578334
 C         1.6776201132       -2.8813837485        3.1707758772
 C         1.5491345584       -1.3572264973        3.0636375679
 C         2.0444263485       -0.4923244496        4.2619252210
 C         3.4479096269       -0.0729668569        3.8188335491
 C         4.5611052731       -0.8219768858        4.5207206933
 C         1.0928110619        0.7318820965        4.2960911542
 C         1.9953425800       -1.2845515615        5.5786708537
 O         1.4271220857       -0.8228921098        1.9355120386
 O         3.5768368863        0.8254525335        2.9733870842
 C         5.9468558452       -0.7780616926        3.7501700347
 C         5.9163655238       -1.5404357285        2.4501332161
 C         7.1206695624       -1.6602324256        1.5707797040
 C         6.9315978092       -0.5744110805        0.4378144389
 C         5.8691757966       -0.8427148768       -0.6223408901
 O         4.8662519771       -2.0380710603        2.0204036080
 O         7.6222703705        0.4050293994        0.4213426450
 C         8.3363784713       -1.2428355905        2.5751028037
 C         7.3849415240       -3.1711823504        1.1152699496
 C         5.7757794498        0.5175369567       -1.4138621549
 C         4.6667740820        1.4413585400       -0.8953576953
 C         4.9423396477        3.1276281753       -1.0638261831
 C         3.4752086677        3.7921316969       -1.1429701774
 C         3.2376586431        5.1346854268       -0.4421306115
 C         5.8677204924        3.4674661898        0.1632750667
 C         5.5071326168        3.3655121356       -2.4802721885
 O         3.6496282583        0.9754549114       -0.4076942996
 O         2.5960195551        3.1890227525       -1.6999161004
 C         1.7091358858        5.1134592145       -0.0554420424
 C         1.3660189399        4.7910917405        1.3156318224
 C         0.6878887833        5.8784436324        2.1166652162
 C        -0.9403078128        5.8661233828        1.5209283868
 C        -2.1239185620        6.3783040416        2.3624636625
 O         1.8211962256        3.8010623836        1.9312556331
 O        -1.1051003538        5.4381609256        0.3742738777
 C         0.7634076823        5.4787709162        3.6359076262
 C         1.1773875174        7.3352146214        1.8700272883
 H        -8.5431145760       -6.0848876496        1.3319765645
 H       -10.2237559441       -6.5308310920        0.7266566276
 H        -8.7968178177       -6.9804190510       -0.1728288284
 H        -7.3746477607       -3.3877635966       -1.6698551569
 H        -7.7988898923       -3.6543170518       -3.4418318866
 H       -10.9545005539       -5.4315363692       -3.1847986717
 H       -10.5696762076       -6.5465051419       -1.9017720098
 H        -9.0916408194       -5.6882289271       -2.7653658364
 H       -11.4434899528       -3.1431609281       -0.4710442512
 H       -12.2270047874       -4.0475109508       -1.7701486655
 H       -11.9513803826       -4.6890737166       -0.0744151037
 H        -8.4813106916       -0.7946380002       -2.8195115106
 H        -7.1250994375       -1.0335727657       -1.9634187989
 H        -4.7235656503       -0.3514697955       -1.8722628288
 H        -4.0200430300       -0.4210786432       -3.3661706441
 H        -5.9483669400       -1.0879244701       -6.3659509867
 H        -4.6213809509        0.0918451835       -5.8259108089
 H        -6.0519331677        0.5704082061       -6.5713495548
 H        -8.2331529052        0.2615166587       -5.8574856438
 H        -8.7808629433        0.7054103099       -4.2221877748
 H        -7.7588752162        1.7157752272       -5.3207282125
 H        -4.2890313036        2.0576801332       -1.6755467386
 H        -3.5000036056        2.0066948484       -3.2226143962
 H         0.9916389093       -0.4234659834       -2.2246676163
 H         1.5543965176       -0.3247784121       -0.5792468497
 H        -0.6992242715       -0.1282302303       -3.3522492942
 H         0.0484856029        1.2347152869       -4.0788736781
 H        -1.6828777317        0.9344817439       -4.1853492810
 H        -1.6502946048        3.5473952238       -3.1393234798
 H        -1.6877948244        3.2873633532       -1.3185124144
 H        -0.1830340434        3.5165566604       -2.1486885155
 H        -0.6804374489       -1.2877534100        0.2447459435
 H        -1.1729761842       -1.3372793927       -1.4318428247
 H         1.6781763927       -4.7065747177        1.8896517822
 H         2.0198006696       -3.3628436699        1.0000524381
 H        -2.3829117414       -3.1987754070        0.2035300102
 H        -2.2593584901       -5.0250128464        0.1059208901
 H        -2.1326029914       -4.0225947363       -1.3774983008
 H        -0.2535328188       -5.7411237992       -1.1648690738
 H         1.3163106371       -5.4382368813       -0.4048162808
 H        -0.2690279685       -6.0084939355        0.6166819656
 H         2.7830708105       -2.9235235526        3.4833686783
 H         1.0247189083       -3.2663459467        3.9123409471
 H         4.7899181590       -0.4757603272        5.5042090788
 H         4.0754552860       -1.9262190339        4.5320202152
 H         0.1378175820        0.4012232171        3.9078042872
 H         1.4853563111        1.5909023368        3.7471282603
 H         0.9453321303        1.3170187305        5.2177127907
 H         2.6089942099       -0.7600201896        6.3019098654
 H         1.0246229333       -1.5131200901        6.0000703658
 H         2.3555549440       -2.3334647746        5.4125446456
 H         6.2730834795        0.2999355182        3.4961734348
 H         6.8325151165       -1.2166503396        4.3473961638
 H         6.1721246567       -1.7124019799       -1.1522070843
 H         4.9074175006       -1.0747158865       -0.0676305801
 H         8.5131506961       -0.2386428879        2.8793163771
 H         9.2320385980       -1.3511682296        1.9388334951
 H         8.5250470955       -1.9659108874        3.2608225865
 H         6.7975292709       -3.5099343397        0.2458455441
 H         8.3599252344       -3.4298207257        0.8059488998
 H         7.1705505867       -3.7728571150        1.9507129356
 H         5.5361974558        0.4486070888       -2.5749515604
 H         6.7087310459        1.0314374072       -1.2297061909
 H         3.9741905136        5.4420714597        0.2492067687
 H         3.2455306821        5.9181509027       -1.2246004119
 H         5.6020603073        2.8658946271        0.9925636014
 H         5.7373308171        4.5167219228        0.3281663375
 H         6.9060091739        3.3458965922       -0.1198081026
 H         4.9481096953        2.6882880525       -3.1855032138
 H         5.2709175519        4.4454136079       -2.7949919456
 H         6.5347809403        3.0988444225       -2.7135396154
 H         1.2821813299        6.0167266900       -0.3149543087
 H         1.2400757633        4.3682448248       -0.6767934224
 H        -1.8264013465        7.1555579358        3.1036269443
 H        -2.8861202822        6.8815811346        1.7187494354
 H        -2.5028314841        5.5028975431        2.8464975771
 H         1.7708391654        5.6670427524        4.0732452468
 H         0.4114507003        4.4895915686        3.8549148321
 H         0.1691972902        6.1190820789        4.2198348235
 H         1.0748369348        7.6406126206        0.8371420273
 H         0.6650258707        8.0270507856        2.5098290778
 H         2.2640910577        7.3424985223        2.1557404862
 Na        2.0960141053        1.4764646791        1.3046717171
