155

 C        -9.1203200401       -6.3134158536        0.1962209860
 C        -9.1538683104       -4.9022381642       -0.2071919407
 C       -10.0820273444       -4.5370099815       -1.4267795301
 C        -9.5435822279       -3.0924937526       -1.9885436562
 C        -8.0996320322       -3.0317303967       -2.5015753906
 C        -9.9725650995       -5.5225053412       -2.6286279111
 C       -11.6043036961       -4.4210786018       -0.9980890147
 O        -8.4978541078       -4.0603080527        0.4324364099
 O       -10.1965849085       -2.0950633953       -1.8926607737
 C        -7.6609225285       -1.6237641447       -2.7572218439
 C        -6.8597653919       -1.4726996880       -4.0072697353
 C        -6.7535223307       -0.0488226145       -4.6161895094
 C        -6.0053994398        0.9108000462       -3.5595437748
 C        -4.7175351412        0.3926487755       -2.9713806890
 O        -6.2434261777       -2.3885549583       -4.5040795546
 O        -6.5660396970        1.9458100217       -3.2788846058
 C        -5.7743368023       -0.0346959657       -5.8548888887
 C        -8.1469055933        0.6288398161       -5.0298990243
 C        -3.7542752185        1.5605936773       -2.5637251472
 C        -2.5087287651        1.1966282173       -1.6895777300
 C        -1.0912098234        1.6086173771       -2.2219562176
 C         0.0245494333        1.2524259392       -1.2404376144
 C         0.5791211306       -0.2439452981       -1.1177852895
 C        -0.8364135752        0.9297960306       -3.5882984189
 C        -1.0272119538        3.1513074186       -2.4554537937
 O        -2.6093559768        0.5166590908       -0.7100179124
 O         0.5137748812        2.0658511939       -0.4424618271
 C        -0.4611654728       -1.3821175566       -0.8372915216
 C         0.2865648662       -2.7597799497       -0.7826750394
 C        -0.2618832113       -3.9084644009        0.1097753710
 C         0.0280059976       -3.4966078357        1.6028727610
 C         1.5101182248       -3.6854312198        1.9372178433
 O         1.3100563945       -2.8603744589       -1.4339732515
 O        -0.7698305045       -3.0517316201        2.4193749102
 C        -1.7801853926       -4.0822073296       -0.1343059329
 C         0.5303828893       -5.1825923701       -0.2504834796
 C         1.8578257797       -2.9016384085        3.1091696833
 C         1.6878199242       -1.3975963060        2.9288912578
 C         2.0318746252       -0.4373109696        4.1910113508
 C         3.4800106572        0.0260804235        3.8907194045
 C         4.6014180283       -0.7073573352        4.7117274350
 C         0.9035347511        0.5702955625        4.2413831270
 C         1.7877457706       -1.1774745352        5.6359924895
 O         1.4467418053       -0.9658528813        1.8661776842
 O         3.7546727231        0.7172199235        2.9457435291
 C         5.8594232591       -0.7471036399        3.9563210682
 C         5.8138734058       -1.5309708285        2.5616386996
 C         7.1775843559       -1.7270971733        1.6926945149
 C         6.9844967583       -0.5961480064        0.5403402133
 C         5.8584763198       -0.7864677561       -0.6223261314
 O         4.8059450930       -2.0612741330        2.2056120326
 O         7.7204086455        0.3748787634        0.5825110726
 C         8.4699413345       -1.2299763766        2.3682147511
 C         7.3197805621       -3.1303616440        1.2059087026
 C         5.7405296368        0.3902979016       -1.5680436163
 C         4.6901181483        1.4231911649       -0.9799016737
 C         4.9644989554        3.0407092520       -0.9760974809
 C         3.5282213060        3.6005914271       -1.0331807091
 C         3.1541644153        4.9022630553       -0.2238278500
 C         5.8746887049        3.5621383242        0.2597817360
 C         5.7262056275        3.4915411981       -2.2346760347
 O         3.6096706510        1.0958669819       -0.5787687994
 O         2.6488046201        3.1847166249       -1.7877334568
 C         1.6738494221        5.1761817632       -0.0907903724
 C         1.2517593423        4.7194662357        1.3135886884
 C         0.6416774160        5.8108172118        2.2436610392
 C        -0.8997914426        5.6500966314        1.7024198897
 C        -2.0673119898        6.2276283791        2.4896906401
 O         1.5308990020        3.6633150761        1.8182287177
 O        -1.0618805138        5.0969119446        0.6774905742
 C         0.6261544309        5.5398790503        3.7516603346
 C         1.0858860605        7.3206794227        1.9725762184
 H        -8.7980573293       -6.3754405645        1.2505251332
 H       -10.0795780219       -6.7563169876        0.0643447217
 H        -8.4373012754       -6.9052287526       -0.4912580503
 H        -7.3997483337       -3.5304478984       -1.8383588834
 H        -8.0888580415       -3.6143665399       -3.3620637416
 H       -10.2597569929       -4.8699905580       -3.4367657297
 H       -10.6315376691       -6.3169348079       -2.4991984924
 H        -8.9822548800       -5.7689795578       -2.7032799532
 H       -11.8486865067       -3.5901853834       -0.3667860336
 H       -12.2092724451       -4.5017819597       -1.8725376188
 H       -11.7744269119       -5.2832630982       -0.3321490755
 H        -8.4678412105       -0.9043624627       -2.7205452718
 H        -6.9972306062       -1.2517854717       -1.9114612231
 H        -5.0620183557       -0.2108471360       -2.0845176369
 H        -4.1152002742       -0.2989451251       -3.5923310564
 H        -5.9430036820       -0.8722089378       -6.4860286111
 H        -4.7567240627        0.0280963662       -5.5968450613
 H        -5.9712960126        0.8643208275       -6.5172524794
 H        -8.2798350390        0.9151024929       -6.1163781358
 H        -8.9303121347       -0.0309769528       -4.6506436782
 H        -8.3571540233        1.5782510496       -4.5010433125
 H        -4.3367729526        2.3800206566       -2.0783775475
 H        -3.3469704433        1.9343232970       -3.5739131165
 H         1.0505248129       -0.6254165150       -2.0645128107
 H         1.3526569756       -0.4023844708       -0.3782982712
 H        -1.0827400986       -0.1610163614       -3.4987148460
 H         0.2343509662        0.9839678612       -3.8349446254
 H        -1.4249210176        1.2783465493       -4.3954602138
 H        -1.8576192895        3.3087780426       -3.1541724611
 H        -1.2149673977        3.7496296549       -1.5725724208
 H        -0.0801784402        3.4832408284       -2.9736136726
 H        -1.0736753893       -1.2155753776        0.0390423369
 H        -1.1239151626       -1.3083039625       -1.6943339662
 H         1.8884384354       -4.7305030686        2.0357709106
 H         2.1838873567       -3.3815990296        1.1549556018
 H        -2.1271835612       -3.2861948141       -0.7372606194
 H        -2.2885996477       -4.0889231951        0.7948236507
 H        -1.9749091117       -5.0409357829       -0.6611315902
 H         0.3078924627       -5.5317443010       -1.2505251357
 H         1.5725962612       -4.9270949720       -0.1728311860
 H         0.2374692023       -5.9060218012        0.4313799414
 H         2.8841198969       -3.0828685699        3.2747830172
 H         1.2231345236       -3.2516136797        3.9818988402
 H         4.8483162897       -0.0202754283        5.5929907339
 H         4.3096604021       -1.6037789108        5.0097803562
 H        -0.0626994852        0.1067749053        4.5821017088
 H         0.7803164180        1.1059897602        3.2706653436
 H         1.1356213526        1.4827677307        4.7819943779
 H         1.7440537223       -0.4821431791        6.4424838662
 H         0.7817860631       -1.6073074150        5.6270081859
 H         2.3609016416       -2.0259876614        5.8556318498
 H         6.2056935420        0.2585427988        3.8178191405
 H         6.5751792138       -1.2610466834        4.5396676990
 H         6.0891169617       -1.7491293701       -1.2066193740
 H         4.9300219282       -0.9129963274       -0.0745919783
 H         8.3137533617       -0.1757043493        2.6318755700
 H         9.4523550205       -1.1831135938        1.9012883137
 H         8.6926852485       -1.8669346930        3.3003773761
 H         6.9924253003       -3.1944191188        0.1938346035
 H         8.3779401767       -3.4305640884        1.0600004030
 H         6.8170540680       -3.9120383930        1.8101793522
 H         5.4175071956        0.0313106263       -2.4916719111
 H         6.7478123380        0.8855991742       -1.6160713912
 H         3.6632901064        5.0088786989        0.7673676094
 H         3.5778967838        5.6990836995       -0.7939120596
 H         5.2754680618        3.3107385772        1.1802185800
 H         6.1168991240        4.6678822461        0.1325206770
 H         6.8024819381        2.9199055608        0.3054345370
 H         5.0739151282        3.5436082729       -3.0426846703
 H         6.2485103932        4.4028425523       -2.0458217149
 H         6.4130717070        2.7670471480       -2.6948975954
 H         1.3647755373        6.2862749404       -0.2295283157
 H         1.1730729901        4.6273245920       -0.9512435296
 H        -1.7742993333        6.9270465645        3.2726570277
 H        -2.6374121961        6.8241896994        1.7953389949
 H        -2.6548593043        5.3669796462        2.9630114106
 H         1.5713836672        5.8158244451        4.1944981873
 H         0.4886206044        4.4442558947        3.9973200766
 H        -0.0872463820        6.1644675202        4.3625182787
 H         0.5133488157        7.6746527128        1.1216036740
 H         0.8478334050        7.9268310769        2.8470530720
 H         2.1346220165        7.4819490193        1.8108689937
 Na        2.1258832255        1.4343553946        1.1677265209
