155

 C        -9.0402549783       -6.7369302326       -0.0295268256
 C        -9.0294010027       -5.2500622880       -0.3533423513
 C        -9.8795991334       -4.6965443631       -1.5636703191
 C        -9.5015347618       -3.1732904011       -1.8480260945
 C        -8.1138019628       -2.9223575406       -2.4984180995
 C        -9.7859477016       -5.6477861106       -2.8894745693
 C       -11.3404816549       -4.7143509399       -1.1759671049
 O        -8.4888380114       -4.4727463927        0.3827902602
 O       -10.2736101499       -2.3012062349       -1.7464244397
 C        -7.7059845867       -1.4715068819       -2.6642160343
 C        -6.8945367395       -1.3462968547       -4.0241128087
 C        -6.8240458572        0.0426973654       -4.8250299484
 C        -6.1803017399        1.2082311097       -3.9210101842
 C        -4.8836242146        0.7791312300       -3.2354481830
 O        -6.3527307780       -2.3194571686       -4.4648460979
 O        -6.7749950694        2.2526219939       -3.8515303136
 C        -5.9828247215       -0.1185291274       -6.0872379983
 C        -8.2561812215        0.5925604655       -5.1938698082
 C        -3.7739165158        1.8805153580       -3.0521436890
 C        -2.6358362562        1.4055325230       -2.1607401959
 C        -1.1491520050        1.8448330695       -2.5395739106
 C        -0.1871278838        1.1855774488       -1.3775009330
 C         0.3698966336       -0.2436167960       -1.5756276128
 C        -0.9343710967        1.0862803076       -3.9501767112
 C        -1.0613932082        3.3198982294       -2.6727133426
 O        -2.8453210406        0.6922691941       -1.1906735795
 O         0.1115461802        1.9748308951       -0.4595436784
 C        -0.4370615955       -1.3668311627       -0.7800450438
 C         0.4321304110       -2.6526705284       -0.5843229901
 C        -0.2100066833       -3.8930238047        0.0922545753
 C         0.3495890900       -3.5541664954        1.5845886797
 C         1.7917404634       -3.7508677423        2.0037966374
 O         1.5963559883       -2.6872034099       -0.9946480355
 O        -0.4048320192       -2.8674629690        2.2555756909
 C        -1.8171139455       -4.0134608291        0.1726015787
 C         0.3911304845       -5.2013870993       -0.4806730481
 C         1.9987701891       -2.8876350346        3.2401740171
 C         1.9022683716       -1.2998636834        2.9393557815
 C         2.0319110548       -0.1993826505        4.1362757205
 C         3.4911574139        0.2247263033        3.7869940538
 C         4.6540757434       -0.2616498037        4.6991126312
 C         0.9488926635        0.9169215375        3.9405080481
 C         1.8888514178       -0.7784828437        5.5069122901
 O         1.8103816881       -0.9474117733        1.7899061938
 O         3.7271965404        1.1310532278        3.0081166884
 C         5.9260148992       -0.1996098390        3.8614130267
 C         5.8760666469       -1.3064153351        2.8139687397
 C         7.0930529450       -1.5915490927        1.8000727136
 C         6.9531542458       -0.4575959539        0.6746463205
 C         6.3825533287       -0.8773241148       -0.6516048953
 O         4.8627597505       -1.9931352516        2.8301450660
 O         7.6390997390        0.5390645868        0.8596929173
 C         8.4603239267       -1.3794772713        2.5448145318
 C         6.9262101201       -3.1006194632        1.2292922381
 C         5.8735805019        0.3125287944       -1.4957880423
 C         4.8393854556        1.1905631738       -0.8225567811
 C         5.0874498490        2.7855950057       -0.7966077581
 C         3.6469630541        3.6255055498       -0.9820675299
 C         3.2370639488        4.7006675302        0.0986752738
 C         5.7848404390        3.0152514844        0.5216457048
 C         5.9504323550        3.1715762703       -2.0099384880
 O         3.8802476993        0.6285316972       -0.3455183308
 O         2.9663652740        3.4759188141       -2.0111425918
 C         1.7133684888        4.9316825329        0.0978688876
 C         1.3173837039        4.5486469689        1.5679583550
 C         0.2872618943        5.5717110114        2.4150640515
 C        -1.2523177553        5.4099500133        2.0421688454
 C        -2.2209734932        6.1580747221        2.8713297295
 O         1.6722561742        3.4876582409        2.0987364341
 O        -1.5993872645        4.7274532892        1.1190736758
 C         0.4155784948        5.2174123869        3.9075166913
 C         0.7081374170        7.0603404508        2.1638918307
 H        -8.8451729322       -6.8532844251        1.0565489913
 H        -9.9499648454       -7.2004058362       -0.1521709789
 H        -8.3408636566       -7.2963620880       -0.7520851922
 H        -7.2657028035       -3.6277997072       -2.1796977955
 H        -8.3259497809       -3.3307131822       -3.4642462168
 H       -10.3077750567       -4.9272213458       -3.4993932824
 H       -10.1999707849       -6.6075915953       -2.6674097950
 H        -8.8032740635       -5.6444743210       -3.2476180035
 H       -11.4578272881       -4.5145719969       -0.1409846123
 H       -11.9278536740       -4.0158933811       -1.7818635614
 H       -11.7014865697       -5.7308694809       -1.3939694970
 H        -8.5397297722       -0.8363707042       -2.6309560796
 H        -6.9317719582       -1.2079740522       -1.8951294325
 H        -5.2948020206        0.5729601899       -2.2792342731
 H        -4.3790879457       -0.0527032761       -3.7386383623
 H        -6.5883368074       -0.2317913227       -6.9887576855
 H        -5.3030859843       -0.9493307535       -6.0800189580
 H        -5.4080387017        0.8412531399       -6.1429078406
 H        -8.1219508097        1.6706385784       -5.4341842655
 H        -8.8013143289        0.1437782858       -6.0396637430
 H        -8.8739950132        0.2976690438       -4.3513839287
 H        -4.3240555893        2.7216171780       -2.6901893375
 H        -3.3041289098        2.2291578642       -4.0457298503
 H         0.4677445852       -0.5943657761       -2.6766582585
 H         1.3736904477       -0.3409675243       -1.1888563833
 H        -1.0588576988        0.0736554238       -4.0673406772
 H         0.1091099617        1.2691193456       -4.1715440543
 H        -1.4814613746        1.5981503673       -4.7165399655
 H        -1.5623682928        3.6505877188       -3.5710569440
 H        -1.5971921540        3.8407943716       -1.8653826313
 H         0.0143005118        3.6450387432       -2.6612065695
 H        -0.7407264346       -1.0514136933        0.1671342028
 H        -1.4294041917       -1.5743447016       -1.3088616360
 H         2.1432314126       -4.7696731615        2.1757715045
 H         2.3784532363       -3.5183817624        1.1434174934
 H        -2.0701844763       -5.0219393710       -0.2246878380
 H        -2.2827142803       -3.2726349713       -0.4294780494
 H        -2.1656162002       -3.9741941810        1.2404486394
 H        -0.1549633930       -5.3768256334       -1.4027431364
 H         1.5219323389       -5.1519797775       -0.5334672322
 H         0.1398529270       -5.9248814637        0.2647096205
 H         2.9129781003       -3.1311405895        3.7371283165
 H         1.0762362444       -3.1327463566        3.9043769777
 H         4.7324697250        0.5731899909        5.4295992871
 H         4.4706241803       -1.1589655002        5.2023971195
 H         0.0123657246        0.5473369831        4.4575432960
 H         0.6764414096        1.2890714985        2.9041853268
 H         1.1004645058        1.8609132941        4.5134875582
 H         2.0814173262       -0.1953083767        6.3651577534
 H         0.8321006002       -1.0819017718        5.6751584543
 H         2.5041680627       -1.6697912802        5.5135203443
 H         5.9256844551        0.8171668358        3.3655843234
 H         6.7932998622       -0.3496565349        4.5286014659
 H         7.1509528815       -1.5798394455       -1.1511580405
 H         5.4307405654       -1.3241395955       -0.3582925632
 H         8.7018583427       -0.3649168940        2.8730341890
 H         9.3491253894       -1.7321925677        2.0050992162
 H         8.4841104283       -1.9049375589        3.5272844171
 H         6.0453541049       -3.6549592303        1.4854198985
 H         7.0228506172       -3.1102449624        0.1345944055
 H         7.7294400917       -3.7453184750        1.5399776617
 H         5.2387613108       -0.1508870208       -2.2981123977
 H         6.6772255672        0.9658529759       -1.8428836124
 H         3.4768531845        4.3784425020        1.1225371366
 H         3.7953603984        5.5443723165       -0.0902030086
 H         5.4037672923        2.4736468427        1.3709332773
 H         5.9072586538        4.0976457296        0.7722001475
 H         6.8011238204        2.5839016012        0.2977995607
 H         5.8034479938        2.5040893805       -2.7926060006
 H         5.7443130050        4.1910591384       -2.3292754551
 H         7.0718630020        3.2623746134       -1.8881261348
 H         1.3638311412        5.9268605646       -0.3189638083
 H         1.2048839271        4.1816542201       -0.5442437108
 H        -1.8819960125        7.2143012170        2.9645839036
 H        -3.2375891922        6.1427462259        2.4801533676
 H        -2.1028552133        5.8037940703        3.9573083564
 H         1.4461558601        5.1903350020        4.1410243011
 H         0.1959456781        4.1330149642        4.1973600776
 H        -0.1170463632        5.9496554687        4.5057379085
 H         0.6507267005        7.2586525084        1.1088364034
 H        -0.0177336262        7.6956436336        2.6286447102
 H         1.6819144040        7.4158322855        2.5503669028
 Na        2.0667183354        1.3647362472        1.1288575866
