155

 C        -8.0517949624       -7.2686307603       -1.2306333651
 C        -8.0909319906       -5.7827089131       -1.7140771836
 C        -9.3713261734       -5.1053688639       -2.3051080485
 C        -9.2500333664       -3.5040711795       -2.2594325304
 C        -7.9765753359       -2.8592367605       -2.8443813747
 C        -9.5086258569       -5.5000508476       -3.8436241215
 C       -10.6230213487       -5.5142161805       -1.4565188778
 O        -7.0533341053       -5.1729427957       -1.6899139118
 O       -10.1754616340       -2.8673189067       -1.8554027634
 C        -8.1683622909       -1.4245829794       -3.3380441054
 C        -7.0855966293       -1.1048682984       -4.3701430224
 C        -7.1862186416        0.2337569540       -5.1107206726
 C        -6.0055045177        1.1132792920       -4.4070584162
 C        -4.5356232428        0.7230121182       -4.6070696326
 O        -6.1912451516       -1.8762297334       -4.6573974313
 O        -6.3656922141        2.0387952327       -3.7001588797
 C        -6.8823828129       -0.0145759508       -6.6153688414
 C        -8.4937613388        1.0217097970       -4.8379996478
 C        -3.6395870355        1.6076698291       -3.7704040409
 C        -2.4055252579        0.9617937830       -3.1890087961
 C        -1.3030259962        1.8365030466       -2.6021565284
 C        -0.4851879862        1.0662435373       -1.4418320095
 C         0.0166527209       -0.4442708118       -1.6784199173
 C        -0.2013746703        2.0980158291       -3.7112669024
 C        -1.8487570638        3.1307425512       -2.0414798146
 O        -2.3288093191       -0.2638052831       -3.2562621490
 O        -0.1185212724        1.6339878144       -0.4007615519
 C        -0.7424619292       -1.5443075056       -0.9742378945
 C         0.1135278741       -2.7151250210       -0.7957681749
 C        -0.3023533237       -3.8787261603        0.3732012937
 C         0.2459846549       -3.3684637396        1.7100744239
 C         1.6930916456       -3.7663455430        2.1940849778
 O         1.2664760642       -2.7522151339       -1.2158660632
 O        -0.4655962421       -2.6497651627        2.4094762008
 C        -1.8860907812       -4.0314234111        0.3653533254
 C         0.4221533926       -5.1819713620       -0.0703588091
 C         2.1443729426       -2.8719138337        3.3082585557
 C         2.1419163394       -1.3901457042        3.1006896139
 C         2.5657820171       -0.4263296711        4.2795284439
 C         3.6529364313        0.5617421154        3.9221347788
 C         4.8778191712        0.8600244428        4.8554053060
 C         1.2819938910        0.4853486844        4.6588873000
 C         2.9867127540       -1.2172517313        5.5802130900
 O         1.9070839449       -0.9325470079        2.0265230954
 O         3.4543259659        1.3054885153        2.9619713023
 C         6.0508778608       -0.1283421666        4.9214543445
 C         6.0424216792       -0.9709753739        3.5790776795
 C         7.2324296588       -1.1318467601        2.6873444818
 C         7.0913840730       -0.0393422055        1.6131742412
 C         6.7725331925       -0.2554884373        0.1802933155
 O         5.0566138383       -1.5936051135        3.2556068602
 O         7.4978162895        1.1113731721        1.9505197842
 C         8.6736252347       -0.9227770415        3.3775594003
 C         7.2011914463       -2.5569980837        2.0715826115
 C         6.2981920147        0.9859260894       -0.6490283393
 C         4.9687373538        1.6910291105       -0.3273742060
 C         4.7863578788        3.1686605857       -0.7713412706
 C         3.2525358055        3.5130209751       -0.5557631417
 C         2.9049309540        4.4673923150        0.6804651387
 C         5.8066667071        3.9496970774        0.1569803421
 C         5.0841599100        3.4869089992       -2.2077481505
 O         4.0877416037        1.0661334190        0.2516208912
 O         2.4052221157        2.9077691020       -1.1989791831
 C         1.4658204281        4.9887629502        0.8283516489
 C         0.6707743703        4.3734140262        1.9261973004
 C        -0.3795939449        5.1348753044        2.6878985848
 C        -1.5172353170        5.3209223851        1.6341852474
 C        -2.7787965361        4.5675847297        1.7499680615
 O         0.8615295764        3.2316276423        2.3527401140
 O        -1.2663469831        6.0716547472        0.6766057397
 C        -0.8302521250        4.2837530849        3.9431301413
 C         0.0531276627        6.5839889980        3.0733650399
 H        -7.0788248408       -7.5629438923       -0.7431905882
 H        -8.7619040479       -7.3536195839       -0.3932884016
 H        -8.4334110187       -7.9483014448       -1.9533751340
 H        -7.0827311699       -2.8989342572       -2.1252647646
 H        -7.6869866822       -3.4598047894       -3.7016654655
 H       -10.4786012230       -5.2655573059       -4.3280592217
 H        -9.4969180917       -6.6011464692       -3.7563740347
 H        -8.7139461324       -5.0396481553       -4.4935491044
 H       -10.5276513442       -4.9603380888       -0.4861260597
 H       -11.4500655944       -4.9751977214       -1.9188350085
 H       -10.9113959226       -6.5420430372       -1.2938783698
 H        -9.1049227263       -1.2403524892       -3.8151955745
 H        -8.1299907373       -0.6912572890       -2.4774759589
 H        -4.4449203411       -0.3756215158       -4.3866443720
 H        -4.2369938657        0.7362450326       -5.6933883138
 H        -7.7319098235       -0.4468598037       -7.1152800604
 H        -5.9582619295       -0.6100590934       -6.7914061912
 H        -6.7197599125        0.9822959294       -7.1188294362
 H        -8.4224393363        2.0610586341       -5.1091138936
 H        -9.3084886512        0.6095374302       -5.4100541643
 H        -8.7540044818        0.9502357340       -3.7642760274
 H        -4.1369943830        2.1814085551       -2.9538988712
 H        -3.2376517202        2.3619917428       -4.5042191319
 H         0.1232479874       -0.7016675704       -2.6799860361
 H         1.0769139452       -0.4094261709       -1.3239982856
 H         0.2628107025        1.1655787228       -4.0072461045
 H         0.5056359200        2.8823683723       -3.4957144713
 H        -0.7732985308        2.4983786052       -4.4778534951
 H        -2.2955282875        3.7370913513       -2.8493445194
 H        -2.6872404272        2.9405261290       -1.3974495231
 H        -1.1804855518        3.7510126035       -1.5303741634
 H        -0.7755712930       -1.1538755443        0.1567553926
 H        -1.7128755842       -1.6139322612       -1.4078059761
 H         1.5948049203       -4.7468478227        2.6341588433
 H         2.4044822342       -3.9724525826        1.3200039972
 H        -2.1784205130       -5.0124995908        0.6536654499
 H        -2.3425420796       -3.9098056616       -0.6382839974
 H        -2.3438735996       -3.3718218590        1.0897317981
 H        -0.0500159130       -5.6063952627       -1.0355235540
 H         1.4666328620       -4.9751911402       -0.3652047111
 H         0.4552242829       -5.9859254809        0.6967147253
 H         3.1142564920       -3.1100622521        3.7837265537
 H         1.4292179277       -2.9827808149        4.1204794042
 H         5.2569509205        1.8490062873        4.4300157777
 H         4.4524453721        0.7681758977        5.8034771639
 H         0.4935585706       -0.1817963259        4.9973336562
 H         0.9583897216        1.2371445761        3.9238862390
 H         1.5965521854        0.9514363062        5.5977698818
 H         3.2552579650       -0.4436794988        6.3604333457
 H         2.1813155706       -1.8337764208        5.9346623184
 H         3.8724831083       -1.8324682189        5.3919961503
 H         6.8932365876        0.5054278822        4.9883538067
 H         6.1221325645       -0.8200134593        5.6993940193
 H         7.5633767207       -0.8025372955       -0.3673218411
 H         5.9281961678       -0.9776411484        0.2083115551
 H         8.6641665141       -0.0309652907        3.8953419099
 H         9.3209738666       -0.8860053053        2.5761618383
 H         8.9668203069       -1.6924108471        4.1331111106
 H         6.2651448636       -2.6768865986        1.5827553302
 H         8.0427642414       -2.5066069365        1.4150244207
 H         7.3692170394       -3.2965901753        2.8749587089
 H         6.3294904038        0.7882493788       -1.7221892326
 H         7.2127250199        1.7545929611       -0.5977646759
 H         3.2109142135        3.9904343881        1.6213563923
 H         3.6354031769        5.2857794532        0.6585645922
 H         5.4372484060        4.0255788611        1.1538964027
 H         5.9050364312        4.8931030155       -0.2887199721
 H         6.7206144417        3.4475894473        0.1385901377
 H         4.4027305887        3.0064056881       -2.8711320058
 H         4.9328802103        4.5732656434       -2.3725005583
 H         6.1237736561        3.1443093643       -2.4917883382
 H         1.4292720748        6.0738468329        0.9352335447
 H         0.7511426438        4.7779687145       -0.0274067354
 H        -3.3594924682        4.8525185430        2.6238898649
 H        -3.3796889665        4.7642670267        0.8872997857
 H        -2.6236345623        3.4941165861        1.9100531308
 H        -0.0783788299        4.1867400615        4.7317807488
 H        -1.1585637373        3.3846074687        3.5202240646
 H        -1.6360225373        4.9709020258        4.2648752505
 H         0.2824639760        7.2619391448        2.2322596295
 H        -0.7757069047        7.1354732384        3.5653138789
 H         0.8934877629        6.6250758340        3.7494323715
 Na        1.7833173530        1.2836481207        1.2176431892
