155

 C        -8.0847162113       -7.6170265733       -1.5830085255
 C        -7.9913759041       -6.1125823288       -1.7624401913
 C        -9.2633929760       -5.3179158874       -2.3685644976
 C        -8.9719283529       -3.7743500921       -2.6606981257
 C        -7.7736097298       -3.2598517477       -3.5609314486
 C        -9.6996198205       -5.9564305729       -3.7401759357
 C       -10.5007176893       -5.5135623326       -1.3988274018
 O        -6.9712196476       -5.5719638921       -1.4149044178
 O        -9.6029391248       -2.9571826956       -2.1183408073
 C        -8.1022287012       -1.7990554700       -4.0328606529
 C        -6.8707678151       -1.0701635208       -4.7438824727
 C        -6.9352087033        0.4998702331       -4.9546377158
 C        -5.7740331957        1.2045969065       -4.0899335362
 C        -4.3180373893        0.6100408579       -4.1599836781
 O        -5.9437852025       -1.6555965722       -5.2567568260
 O        -5.9970269604        2.1355387192       -3.4035943277
 C        -6.6232302178        0.8460548018       -6.4237456738
 C        -8.2832126124        1.1698330902       -4.6267548556
 C        -3.3733379090        1.5733725795       -3.5077472189
 C        -2.1558858415        0.7601819130       -3.0404724089
 C        -1.0039097013        1.7156886888       -2.4171193184
 C        -0.3553573625        1.0084448326       -1.2692740505
 C         0.3384096203       -0.2821648333       -1.4794126502
 C         0.0896364772        2.0282819975       -3.5188644932
 C        -1.5603145672        3.0440835073       -1.9923508368
 O        -2.0475296650       -0.4593395502       -3.1119752354
 O        -0.2699422612        1.5637743696       -0.1994406300
 C        -0.3803205429       -1.3827113910       -0.6658800847
 C         0.3211023724       -2.7226187350       -0.5735248907
 C        -0.3766529979       -3.8617232328        0.4050110440
 C         0.2294111381       -3.7106462091        1.7975509760
 C         1.8488469562       -3.8043889917        1.8821680332
 O         1.3621456463       -2.9494594834       -1.1361624241
 O        -0.4613273265       -3.6557418886        2.7963377297
 C        -1.9620384080       -3.7445255860        0.3469895782
 C         0.1369242536       -5.1997924756       -0.2208423244
 C         2.3007325396       -3.0540542832        3.0975799784
 C         2.0374585954       -1.5910259017        3.0138712295
 C         2.3771370497       -0.7156777228        4.3669607002
 C         3.3378073336        0.4323309497        3.9887748376
 C         4.5995427417        0.7880417167        4.8125088449
 C         0.9794883673       -0.0750971857        4.9323217883
 C         2.7743606933       -1.6488790549        5.4790430221
 O         1.7486119546       -1.0122694791        1.9756437830
 O         3.1545553704        1.1944862975        3.0588260317
 C         5.7740304425       -0.2328271125        4.8395680606
 C         6.1233126082       -1.0533171488        3.6106996762
 C         7.3611130695       -0.9034423817        2.7402799061
 C         6.8836754331        0.4229960745        1.8407599629
 C         6.5055315973        0.0391864958        0.3883945287
 O         5.1527722138       -1.6785610386        3.1435199319
 O         6.8411391813        1.4724883104        2.3510928758
 C         8.6744158204       -0.5033818244        3.5292221072
 C         7.7114959612       -2.1699091914        1.9316030239
 C         6.2180644008        1.2068134590       -0.5521244018
 C         4.7617392030        1.8272227120       -0.3863002766
 C         4.6519283629        3.3651393445       -0.6447219524
 C         3.1266373647        3.6265556827       -0.2908637302
 C         2.6921408410        4.7616874259        0.6004129848
 C         5.6816620403        4.2377240510        0.2791775144
 C         4.9383231460        3.6048569750       -2.1205054357
 O         3.8737409300        1.0669693938        0.1273981709
 O         2.2610573440        2.8914321574       -0.7801224644
 C         1.1999495443        5.0515868199        0.5520057688
 C         0.4950655816        4.3877849191        1.7251027661
 C        -0.6096388594        5.2202581884        2.3460148665
 C        -1.6520440186        5.6851209255        1.3057969883
 C        -2.8034986275        4.7932183527        0.9620307809
 O         0.7716374144        3.2730392429        2.1372126659
 O        -1.7188585158        6.8688461571        1.0281455445
 C        -1.2628628996        4.6264552002        3.6850767148
 C         0.1778896751        6.5305376112        2.9633457037
 H        -7.2306927485       -8.0861682319       -1.9906616073
 H        -8.2556797983       -8.0149910530       -0.5210050407
 H        -8.9121043743       -8.0310410177       -2.1215626969
 H        -6.9100259393       -3.1850829430       -2.7571946214
 H        -7.4856433495       -3.9056634972       -4.4027608758
 H       -10.7114068836       -5.6078607203       -3.9200348306
 H        -9.7397318843       -7.0617604766       -3.7636056544
 H        -9.1575581203       -5.7024607344       -4.6432718291
 H       -10.5058756291       -4.9779983697       -0.4640886053
 H       -11.4517325110       -5.3591234186       -2.0048249730
 H       -10.5374746343       -6.5498570412       -1.1001889991
 H        -8.9304232728       -1.8383620164       -4.8144189830
 H        -8.4007115331       -1.3143614666       -3.1052519289
 H        -4.3728680367       -0.3640448485       -3.6122147662
 H        -3.9473713423        0.5584471854       -5.2229827146
 H        -6.2953568331        1.9311331199       -6.6461815834
 H        -7.4996385658        0.7458993323       -7.0678744645
 H        -5.9052109323        0.1600058408       -6.8068868594
 H        -8.1387439282        2.1979261891       -4.8193077853
 H        -9.0666942872        0.7623534803       -5.2641793610
 H        -8.6604683316        1.2356202396       -3.6067808328
 H        -3.8669130859        1.9401217914       -2.5796197646
 H        -2.9859125639        2.4569089631       -4.0727801280
 H         0.2997826030       -0.6167967347       -2.5584647733
 H         1.3593271684       -0.2304473201       -1.1696133759
 H         0.8136719612        1.1426654093       -3.6370999677
 H         0.5774899712        2.8237841165       -3.0966767582
 H        -0.3059302535        2.2189815577       -4.5101325519
 H        -1.9320369570        3.6035399059       -2.8027955481
 H        -2.3588199580        2.8742450070       -1.2759340970
 H        -0.8308784748        3.6599507434       -1.4883491898
 H        -0.5308901075       -1.1089682107        0.3596009577
 H        -1.4413408417       -1.5764571039       -1.0673188251
 H         1.9319788181       -4.9361126343        2.1425973544
 H         2.3984133916       -3.7663340334        0.9556996946
 H        -2.4306986597       -4.7514768052        0.5660840801
 H        -2.1789429206       -3.4288634072       -0.6727897071
 H        -2.3782250116       -2.9981693238        0.9614533766
 H        -0.4843544575       -5.6540150334       -0.9837120343
 H         1.1321328657       -5.1243548585       -0.6108790215
 H         0.1226637530       -6.0394250594        0.5423444242
 H         3.3533277494       -2.9745866529        3.1720799711
 H         1.9194802154       -3.4685321146        4.0398094697
 H         4.8060593814        1.7700080397        4.5850774280
 H         4.2381625313        0.8772961562        5.8930171758
 H         0.2613443139       -0.9118853974        4.9512609864
 H         0.5294585467        0.5516248209        4.1234462980
 H         1.2135316918        0.4059366668        5.9336981155
 H         2.5768138937       -1.1829232172        6.3897171789
 H         2.1249657313       -2.5586384424        5.5479311123
 H         3.8377648276       -1.9707586769        5.4243197180
 H         6.6968660259        0.2197239743        5.1482113981
 H         5.4159941529       -0.9368005626        5.5816151155
 H         7.2945000487       -0.5170098334       -0.1526321748
 H         5.6046581807       -0.5570113477        0.5454505182
 H         8.5623869702        0.2903567154        4.2449516805
 H         9.2804262176       -0.0705926087        2.7278671112
 H         9.1591498786       -1.3691490219        3.8998458168
 H         6.7768030068       -2.5414730572        1.4743055788
 H         8.4903525077       -1.9192097056        1.2376459637
 H         8.0874084341       -2.7945764953        2.6531013769
 H         6.3271882864        0.7899710210       -1.6365331175
 H         7.0668465114        1.7454311377       -0.3762241354
 H         3.0401301642        4.5100068125        1.6857214611
 H         3.2344673309        5.6935732142        0.3315650115
 H         5.7252591255        3.7356347032        1.2769351253
 H         5.4293339198        5.2716175820        0.3320531375
 H         6.6247113333        4.0887666896       -0.1920537925
 H         4.0940022026        3.1471318267       -2.7022375997
 H         5.0133514343        4.6249487226       -2.4299890878
 H         5.8744990446        3.2008968372       -2.3017788904
 H         0.9612727400        6.1508566830        0.7368714095
 H         0.7240718211        4.7859768017       -0.4547285696
 H        -3.8547107835        5.1285005694        1.2113519340
 H        -2.8834611918        4.7683151977       -0.1683898964
 H        -2.7227917539        3.7769390990        1.2739884854
 H        -0.4918110070        4.8721190723        4.5057360421
 H        -1.4622191121        3.5867373115        3.5269254507
 H        -2.1733769905        5.1864058684        3.8038931006
 H         0.6013515047        7.2542463862        2.2674434583
 H        -0.5207045294        7.0861453108        3.5404727348
 H         1.0441308607        6.2973072900        3.6823769724
 Na        1.7063682263        1.3851436798        1.0831124522
