155

 C        -6.7705292539       -7.2290082054       -2.0305062908
 C        -7.1455649914       -6.1624452585       -3.1157213956
 C        -8.5618023473       -5.6102633821       -3.3383109979
 C        -8.5134559032       -4.0327917225       -3.2868137544
 C        -7.7362175076       -3.2211260128       -4.2948312843
 C        -9.1994675394       -5.9490065345       -4.7079115112
 C        -9.5066670392       -6.0212928685       -2.2099471275
 O        -6.2629988872       -5.5461442525       -3.6810991265
 O        -9.1998058474       -3.5097544349       -2.4946778095
 C        -7.7834069981       -1.7329987201       -4.0900772991
 C        -6.8682646792       -0.8949189367       -5.0856177743
 C        -6.4129079618        0.4850526198       -4.5297089356
 C        -5.5858849170        0.3178883832       -3.2005326236
 C        -4.2622546623       -0.3633758367       -3.2459231971
 O        -6.5061189738       -1.2735597663       -6.1994191453
 O        -6.0279055083        0.8992701830       -2.2708616551
 C        -5.4259543884        1.2553994470       -5.4933532888
 C        -7.6111212939        1.4008097434       -4.3329341565
 C        -3.0997228926        0.6623824342       -2.9094400370
 C        -1.7423864800        0.0665958177       -3.2571743984
 C        -0.4233338153        0.8533135537       -2.9981197308
 C         0.0880277253        0.1881873330       -1.6904537203
 C         0.8328900532       -1.1830006886       -1.7716759764
 C         0.5589413318        0.5869658750       -4.1944795682
 C        -0.6132526362        2.3562117487       -2.7049430773
 O        -1.5443656157       -1.0926899501       -3.5970124754
 O        -0.1390031740        0.6814970584       -0.5785368249
 C        -0.0581448233       -2.2235448930       -1.1660661620
 C         0.5433175956       -3.5306235603       -1.0854625489
 C         0.0602521838       -4.5674697839        0.1402726244
 C         0.1695753178       -3.8714270628        1.4390853484
 C         1.6292846494       -3.6573154385        2.1244471326
 O         1.4209164967       -3.9554914042       -1.8357181446
 O        -0.7797568631       -3.3652683864        2.0046877268
 C        -1.4502612691       -4.8770738107       -0.0723167533
 C         0.9275235768       -5.9272411773        0.0332207531
 C         1.7123702409       -2.8104387601        3.3413588193
 C         1.6441148652       -1.3067030232        3.1154584495
 C         1.5818576890       -0.2684584560        4.3682678548
 C         2.7524641702        0.7677438155        4.1299601469
 C         4.0475040068        0.8245227765        5.0438392543
 C         0.2794719965        0.7183255569        4.1847853742
 C         1.4898594381       -0.8993734258        5.7868566300
 O         1.3889022328       -0.8444336642        2.0065326761
 O         2.6921153446        1.4857254872        3.1678617079
 C         4.7514041603       -0.5490007132        5.1093197918
 C         5.4758274143       -0.7671716317        3.6942008282
 C         6.9535518767        0.0413908511        3.3527386902
 C         6.6266774406        1.1100827591        2.2905700657
 C         6.5251249494        0.7744497972        0.7743034399
 O         4.8898007018       -1.4559034887        2.9121688794
 O         6.2729812535        2.1833284403        2.7197524262
 C         7.6557991846        0.5572708606        4.6517695855
 C         7.9155088483       -1.0545045606        2.6880013958
 C         6.1621587916        1.8621346159       -0.1570473879
 C         4.6816004937        2.4240046160        0.1303925394
 C         4.3517645314        4.0008517826       -0.4272285224
 C         2.7790376011        4.4129310176       -0.3240143299
 C         2.1482724515        4.6958736219        0.9830591829
 C         5.1074922490        4.9225656406        0.5949066277
 C         5.0773019150        4.0675589970       -1.7831309830
 O         3.8010574163        1.7653365153        0.6282595662
 O         2.1541569159        4.5322193023       -1.4253817167
 C         0.7312361294        5.0314293253        0.9319212647
 C        -0.0361016329        4.3286666712        1.9919561298
 C        -0.7726277830        5.2013264692        3.0019230177
 C        -1.8156048892        6.1096747291        2.3266669670
 C        -3.2864326125        6.0236010360        2.5841525352
 O        -0.0320122687        3.0871101512        2.0359339857
 O        -1.4082766003        6.9300753379        1.5117418363
 C        -1.3280962704        4.2618588831        4.0755739627
 C         0.3841143833        6.1288388820        3.5971141596
 H        -6.2215306202       -8.0281935229       -2.4174474860
 H        -6.1439140068       -6.6616784493       -1.2799356082
 H        -7.5630160096       -7.6766457559       -1.3982574119
 H        -6.7322819615       -3.5010626873       -4.3582352813
 H        -8.1810141084       -3.4301420579       -5.2320443541
 H       -10.2293467549       -5.6874852575       -5.0701191315
 H        -9.1859375124       -7.0302229607       -4.8165325056
 H        -8.5931176241       -5.6028189699       -5.5527527682
 H        -9.2051208930       -5.4577691824       -1.3157791594
 H       -10.4491919180       -5.8007121583       -2.5730445328
 H        -9.4470097632       -7.0960539494       -1.9952865195
 H        -8.8331879641       -1.3003704928       -4.2753001719
 H        -7.4233535400       -1.3994951037       -3.0521184275
 H        -4.3496889313       -1.2157738552       -2.5298485076
 H        -3.9989326861       -0.6787371081       -4.2209857400
 H        -5.1842095785        2.1725823496       -5.0254969958
 H        -6.0270654440        1.4719088971       -6.3923969836
 H        -4.4999683609        0.7610829336       -5.6659224972
 H        -7.3415543487        2.4756557569       -4.3260769629
 H        -8.3447132263        1.2381991381       -5.0872358461
 H        -8.0668908332        1.0942754087       -3.4288111595
 H        -3.1268601580        1.0311900471       -1.8736509699
 H        -3.1014184219        1.6470066599       -3.5342743671
 H         1.1184246930       -1.3976782724       -2.8192769943
 H         1.7128208251       -0.9306351441       -1.1564891692
 H         0.5973111208       -0.5293224701       -4.4864965463
 H         1.5062712838        0.8621977816       -3.9205192426
 H         0.1070390542        1.1660668225       -4.9780213398
 H        -1.1539923701        2.8814518747       -3.5181749713
 H        -1.2498620641        2.4684576062       -1.8188899594
 H         0.3926682086        2.7655061344       -2.5216372685
 H        -0.3613126490       -1.9398402007       -0.1551395714
 H        -1.0331943870       -2.2228721840       -1.8152255294
 H         2.0505782046       -4.5652245767        2.3071365460
 H         2.2351108300       -3.2709080848        1.3069288275
 H        -1.8795951185       -5.2882431413        0.7901176106
 H        -1.6973668233       -5.4103640815       -0.9618348600
 H        -1.9362150131       -3.8630033268       -0.2296700891
 H         1.0512731687       -6.0327082408       -1.0381355021
 H         1.9455694614       -5.8761932005        0.5830266859
 H         0.3803052959       -6.8328293980        0.4227943600
 H         2.5788473502       -3.0946823809        3.9056249223
 H         0.8225439931       -3.0006609595        3.9729948422
 H         4.7609049688        1.5366902084        4.5110054135
 H         3.6036785122        1.1951060178        5.9572845724
 H        -0.5413154374        0.1546069709        3.7860021401
 H         0.4836787657        1.4635316627        3.4153981621
 H         0.1490785509        1.0468692087        5.1821713018
 H         1.0948282849       -0.2021968014        6.5997056598
 H         0.8421260438       -1.7582874697        5.7206375783
 H         2.3868089415       -1.2915801887        6.2432785618
 H         5.4807856455       -0.4660575449        5.9287716963
 H         3.9561528733       -1.3474082051        5.3568022749
 H         7.5461444300        0.3622442664        0.6020368472
 H         5.8668418283       -0.0692050273        0.6890950992
 H         7.2715058835        1.4449579283        5.1216760071
 H         8.7154767133        0.6868862417        4.4969740065
 H         7.5529485233       -0.1875436107        5.3301852943
 H         7.3094614681       -1.4986928460        1.9161200003
 H         8.7175301767       -0.4975264611        2.2109887809
 H         8.3152157678       -1.7419542072        3.4983736127
 H         6.1850564912        1.4299737121       -1.2465706819
 H         6.9492932814        2.6396705981       -0.1260476352
 H         2.3833835846        3.8026815170        1.6667629104
 H         2.7098302006        5.4399104394        1.5100790343
 H         4.7685087616        4.8568761510        1.5852919180
 H         5.2661303058        5.9228498317        0.3641622400
 H         6.1212225478        4.6364777650        0.6951183877
 H         4.9702734539        3.0988541646       -2.3364644161
 H         4.8009540854        4.9221992214       -2.3453333240
 H         6.1652019684        4.1347276255       -1.5648835016
 H         0.6567253378        6.1353952721        1.0241179180
 H         0.2133752947        4.6761071588       -0.0425701385
 H        -3.9192454182        6.1400031654        1.6713631349
 H        -3.6331719448        5.0367800080        2.9560757600
 H        -3.7006556208        6.8000627644        3.2111738773
 H        -0.6206697240        4.0203150676        4.8344257655
 H        -1.7691958017        3.2324051381        3.8009127549
 H        -2.2353007289        4.6769910212        4.5525991354
 H         0.6027324799        6.9576525595        2.9200904246
 H         0.0331955062        6.5556246109        4.5805682033
 H         1.2762414850        5.5942802166        3.7678099978
 Na        1.2783097117        1.4111217635        1.1523750048
