155

 C        -6.7012044513       -7.0283738912       -2.2608703936
 C        -6.8172799621       -6.2048903436       -3.5011262858
 C        -8.2987225018       -5.6419909742       -3.9926815429
 C        -8.1655554661       -4.2429104556       -3.3812336536
 C        -7.2422749698       -3.2349126806       -4.1560481854
 C        -8.3342093485       -5.8964950746       -5.5009703667
 C        -9.6250064397       -6.3150646420       -3.3909431263
 O        -5.8774811263       -5.8866994909       -4.1916425204
 O        -8.5902289986       -3.9235807964       -2.2775725766
 C        -7.8715794720       -1.8459732583       -4.0118642842
 C        -7.0907336609       -0.8839305810       -4.8695322444
 C        -6.7089826555        0.6124127889       -4.3347517398
 C        -5.3768363934        0.4980017186       -3.4699131381
 C        -4.0458146798       -0.0732390229       -4.1356883354
 O        -6.8148770188       -1.1791543714       -6.0287448695
 O        -5.2837933320        0.8101157392       -2.3206968634
 C        -6.4101418098        1.4586604747       -5.5028498139
 C        -7.9334673142        1.1042331683       -3.5083181379
 C        -2.8344497674        0.7003125653       -3.4412332000
 C        -1.5240817418       -0.0154646856       -3.3791460205
 C        -0.1219257788        0.7369702479       -3.2298781411
 C         0.5201260824        0.1890805437       -1.8551686612
 C         1.2335271530       -1.1242892231       -1.8993982530
 C         0.7706096538        0.1661536339       -4.4126660206
 C        -0.3072202243        2.2636794003       -3.2527687796
 O        -1.4852118025       -1.2304955973       -3.4537444312
 O         0.3613269522        0.9429831416       -0.8998199440
 C         0.2947679708       -2.1310041672       -1.2397073069
 C         1.0012946566       -3.3440126650       -0.6845877000
 C         0.3036008394       -4.4905982496        0.1349495000
 C         0.2984686785       -4.0674030048        1.5766518099
 C         1.7305207527       -3.9275447331        2.2825193044
 O         2.2043099191       -3.4110361889       -0.7552716097
 O        -0.6832182372       -3.7179260825        2.1777540467
 C        -1.1554943810       -4.7699465505       -0.3374999499
 C         1.0690176118       -5.8774066588       -0.0948946429
 C         1.5379497583       -2.9922212774        3.4738421513
 C         1.3721836152       -1.4928108574        3.1308478652
 C         1.0900663075       -0.4886001651        4.3325551649
 C         2.3001641388        0.5166383577        4.3093152762
 C         3.2374394180        0.9928507432        5.6179765866
 C        -0.1436415747        0.3839640640        4.1520691168
 C         1.0713929988       -1.1872965074        5.6949279646
 O         1.6877999141       -1.0992613306        2.0340385892
 O         2.5004681138        1.2004759432        3.2963521344
 C         4.4938681038        0.1347941508        5.7574187979
 C         4.8288843091       -0.2263771493        4.2660509709
 C         6.2412738666        0.2789021086        3.7056475293
 C         5.9665550780        1.4185585948        2.6023695182
 C         5.6259557708        1.0115260624        1.1181972191
 O         4.1081015904       -0.8604973346        3.5736301398
 O         6.0581303084        2.5705671262        2.9833753895
 C         7.1247069239        0.8665682356        4.8127945174
 C         6.9648086937       -0.9618541708        3.0945958591
 C         5.6243390411        2.1516887585        0.2099995840
 C         4.3965707948        2.7424785338       -0.1456165109
 C         4.4147258374        4.3078823897       -0.5023543287
 C         2.9150896100        4.8170155065       -0.5038720563
 C         2.3835465199        5.0294916850        0.9594203268
 C         5.1344739278        5.2247431643        0.4560155081
 C         4.8606484232        4.5673032220       -1.9552216805
 O         3.3834529022        2.0761226882       -0.2028236390
 O         2.3682248431        5.3841416337       -1.4853812082
 C         0.8314251626        4.8492300647        0.8594005664
 C         0.2345012206        4.0864948623        2.0233069654
 C        -0.5634703608        4.8747235858        3.2025500418
 C        -1.7705466940        5.4625943333        2.4507671810
 C        -3.1751967309        4.8036868144        2.5366897365
 O         0.1605489195        2.8759031192        2.1130260234
 O        -1.6077386245        6.5003874772        1.8225853830
 C        -0.8124555553        3.9570144447        4.3525792572
 C         0.3928337688        5.9863615941        3.7100027095
 H        -5.7603359219       -7.5108822176       -2.2791891604
 H        -6.7576989749       -6.5141269635       -1.2860943675
 H        -7.4251032806       -7.8627695028       -2.2493312157
 H        -6.2631304652       -3.3121233640       -3.7156474549
 H        -7.1079686000       -3.4823599645       -5.1864181724
 H        -9.0995404549       -5.4081048097       -6.1203091564
 H        -8.3636647844       -6.9807035786       -5.7037459579
 H        -7.4064974013       -5.5516848312       -5.9693692286
 H        -9.6837841218       -6.2405964318       -2.2801342663
 H       -10.4090348225       -5.7411075091       -3.8782059555
 H        -9.7685080385       -7.3114228870       -3.7343943361
 H        -8.9294701362       -1.8517853117       -4.3493491715
 H        -7.8756304388       -1.5452745901       -2.9869448690
 H        -3.9538796064       -1.1173299153       -4.0581841574
 H        -4.2260505487        0.1038248983       -5.2723326936
 H        -6.2089885097        0.8695547381       -6.3603149547
 H        -5.5360815832        2.1364410782       -5.2223890873
 H        -7.1730284379        2.1339495719       -5.7347144060
 H        -7.7769259831        2.0829323054       -3.1239284695
 H        -8.7874674903        0.9905064072       -4.1372351373
 H        -7.9811287164        0.5653512283       -2.5799195163
 H        -3.0629927149        1.0404117871       -2.3479834849
 H        -2.7379983162        1.5765301133       -4.0655464387
 H         1.4664325462       -1.4914001549       -2.9556093099
 H         2.2284997833       -1.1954682146       -1.3856810105
 H         0.5348460873       -0.9386756495       -4.6443193565
 H         1.7612048772        0.5076342626       -4.2353270411
 H         0.4799441661        0.5460078585       -5.4004107183
 H        -0.7747482216        2.6069594851       -4.2484757142
 H        -1.0331686968        2.6056095808       -2.4844548790
 H         0.6065950110        2.8180472175       -3.1678620466
 H        -0.2471710552       -1.6151706082       -0.3448758804
 H        -0.4330122321       -2.5116659606       -1.8972253498
 H         2.1904945904       -4.8450486185        2.5840949111
 H         2.3115812580       -3.4199224685        1.5197365195
 H        -1.7209503607       -5.4752358813        0.1620795599
 H        -1.2010315464       -5.0792340618       -1.3917654058
 H        -1.7367202052       -3.8297700457       -0.2836758943
 H         1.4381514459       -5.9361297621       -1.1435036077
 H         2.0097971853       -5.7697483931        0.5578231318
 H         0.3698850607       -6.7060407501        0.0571936127
 H         2.3614575640       -3.0859562699        4.2056486421
 H         0.6471544272       -3.3135577009        3.9757028950
 H         3.3856882317        2.1131590337        5.4254489624
 H         2.7090249072        1.0565264140        6.4974814103
 H        -0.9717111221       -0.2606243243        4.0004971759
 H         0.0602603119        1.1976723883        3.5098384112
 H        -0.2486794706        0.8787440406        5.0708058543
 H         0.9441189583       -0.4412010303        6.5110105297
 H         0.2439678967       -1.8565118979        5.8910569544
 H         1.9842076281       -1.7042455584        5.9379283415
 H         5.3302610590        0.6784187057        6.2044931835
 H         4.2535538266       -0.7126561073        6.4217246810
 H         6.3994091910        0.3087664183        0.7759856445
 H         4.6224882552        0.5440786128        1.1084196467
 H         6.5240635133        1.7104408654        5.2011077826
 H         8.0182265387        1.3781448297        4.4590770799
 H         7.3568185508        0.2493112209        5.6175346247
 H         6.2894034698       -1.3431604225        2.3187510974
 H         8.0270439113       -0.8373545611        2.7987316197
 H         7.0255869988       -1.7846771085        3.9168639783
 H         6.0600518508        2.0620440509       -0.7446729579
 H         6.1629569330        2.9853127468        0.8332913912
 H         2.8034709360        4.2641870314        1.5973048987
 H         2.7237751486        6.0754405417        1.1310702947
 H         5.1327078600        4.7662723677        1.3941383890
 H         4.7899191366        6.2180207177        0.7058634091
 H         6.1749514439        5.2658613275        0.2337037206
 H         4.1675064207        4.0833873309       -2.6757552591
 H         4.9206259247        5.6207240164       -2.2189645292
 H         5.9504470858        4.2306034742       -2.0181250580
 H         0.2888256860        5.8136299318        0.7114711719
 H         0.7562916711        4.3368002454       -0.1690416809
 H        -3.7964715803        5.2279175881        1.7252630715
 H        -3.2403737996        3.7314013717        2.6147882221
 H        -3.6876003447        5.0585577064        3.4837025633
 H        -0.5132662891        2.9405860672        4.3529756529
 H        -1.9477877886        3.7745209556        4.5370875462
 H        -0.3236987966        4.3367292919        5.2763259903
 H         0.6171111041        6.6358053534        2.8821623743
 H        -0.0950631020        6.5567163914        4.5182885503
 H         1.2537418693        5.4833818874        4.1333782018
 Na        1.5867907854        1.0917602465        0.9500892986
