155

 C        -6.6910844201       -7.2446587572       -2.4501722541
 C        -6.5264859609       -6.7273185889       -3.8572873114
 C        -7.5556297053       -5.9573156227       -4.5840966546
 C        -7.6711923167       -4.3762628822       -4.1131634071
 C        -6.9477895222       -3.2218149516       -4.8555171967
 C        -7.1970144212       -6.1423304457       -6.1258996437
 C        -8.9477731978       -6.5643033325       -4.3988650107
 O        -5.3843151270       -6.8094719608       -4.2883113339
 O        -8.3991937105       -4.1332837280       -3.1368188621
 C        -7.2441220222       -1.8887099685       -4.1454807501
 C        -6.3176540194       -0.7552628239       -4.4653573347
 C        -6.4833800598        0.5389868757       -3.5555436460
 C        -5.0504994369        0.9433218427       -3.0397034845
 C        -3.8894409335        0.4410557666       -3.8463337752
 O        -5.5698548572       -0.8486024777       -5.4132399343
 O        -4.8817530205        1.6800628275       -2.0908180007
 C        -7.0340372309        1.5680720790       -4.4992957228
 C        -7.4053472827        0.3545781180       -2.3815362149
 C        -2.5791750319        1.2309835169       -3.4615038981
 C        -1.3257211453        0.4061846293       -3.5084609426
 C         0.1416062376        0.9662785525       -3.3407653178
 C         0.6235285962        0.6605236983       -1.8337027638
 C         1.5670753911       -0.4925994459       -1.6176088032
 C         0.9751261504        0.2264832953       -4.3667297837
 C         0.1838214928        2.4702247530       -3.6692395471
 O        -1.3889785761       -0.7837326966       -3.5204877164
 O         0.1103677256        1.3198026256       -0.9624031266
 C         0.7181605052       -1.7690166424       -1.3855329910
 C         1.6378239255       -3.0465947687       -0.8904984906
 C         0.8514307589       -4.2431785839       -0.3255356164
 C         0.7678464137       -4.1145378906        1.2320164341
 C         1.9420765671       -3.6930432112        2.0726240572
 O         2.8643334723       -2.9796298073       -0.9779425165
 O        -0.3694046132       -4.2119758627        1.7260085024
 C        -0.5305144470       -4.4081607616       -0.9879061978
 C         1.7220769868       -5.4989117150       -0.6065542352
 C         1.5578652617       -3.0737210143        3.3723434880
 C         1.3818023987       -1.4825047598        3.1572975870
 C         0.9894362748       -0.5834998061        4.4541022314
 C         1.9175891564        0.6798847376        4.4180086644
 C         2.6849208664        1.2823624616        5.7396082725
 C        -0.4784789086       -0.2321942846        4.3081839662
 C         1.3235680840       -1.3996728601        5.7056245146
 O         1.4633610311       -1.0300986551        2.0242090527
 O         2.1084279799        1.2148370209        3.3852861326
 C         3.9000816448        0.4490132858        6.1485882543
 C         4.6790781557       -0.0879303463        4.9458921153
 C         5.8522551372        0.7943012759        4.2770797898
 C         5.2949175055        1.3592021138        2.9438344462
 C         4.8595837836        0.3771413066        1.7463718347
 O         4.2589810512       -1.1214654115        4.4183706795
 O         5.0811121248        2.5729590167        2.8838426368
 C         6.5500115303        1.9929944486        5.0725183191
 C         6.9476949078       -0.2258913840        3.8434725327
 C         5.1562826143        1.1449000122        0.4244092491
 C         4.0392920577        2.1462029688       -0.0000535121
 C         4.3407517171        3.6891289691       -0.2198610667
 C         2.9241323710        4.5384026214       -0.4612607125
 C         2.0058744477        4.5742571757        0.7882771803
 C         5.2681488841        4.5123580117        0.7681406900
 C         5.1529114598        3.7235744758       -1.5833505345
 O         2.8937805393        1.7500885620       -0.0464641256
 O         2.6602614489        5.0278780278       -1.5106647045
 C         0.5355567889        4.6513498421        0.5275061457
 C        -0.3797032450        4.2076788718        1.6864520889
 C        -1.2094635770        5.1818327537        2.7024098088
 C        -2.7348078004        5.0982972160        2.3501109094
 C        -3.3556200045        3.7679404537        2.2031961454
 O        -0.3371120514        3.0594670318        2.0088900839
 O        -3.3378714973        6.1724384094        2.2412223382
 C        -1.0196457542        4.6340927219        4.2042874510
 C        -0.7627675986        6.6586985252        2.6901240316
 H        -7.0168756235       -8.2353243713       -2.4009583677
 H        -5.7426888084       -7.1251411459       -1.9335353398
 H        -7.4590576151       -6.7056883839       -1.8386247863
 H        -5.8620421352       -3.3917249036       -4.8295439329
 H        -7.3286454980       -3.1721387486       -5.8792965447
 H        -8.0692159042       -5.8691766437       -6.6372482815
 H        -6.9064631997       -7.1957154079       -6.2911376005
 H        -6.4442953398       -5.4573088073       -6.4114274720
 H        -9.2343142720       -6.6144649567       -3.3446061231
 H        -9.5871649473       -5.9162286997       -5.0443925204
 H        -9.0104268249       -7.5615875608       -4.7569836344
 H        -8.2054643554       -1.5725057415       -4.5130674837
 H        -7.3211441600       -2.0640017527       -3.1351793523
 H        -3.6523999814       -0.5847105940       -3.6983584294
 H        -3.9730126718        0.7278339786       -4.9516597526
 H        -7.6591352192        1.1812453544       -5.3253330477
 H        -6.2333523025        2.2482005201       -4.9527090045
 H        -7.7404115295        2.1994524667       -4.0647381286
 H        -7.5331483661        1.2407949723       -1.7346771604
 H        -8.4360899328       -0.0008609777       -2.6436515794
 H        -6.9019967125       -0.3694225292       -1.6710381230
 H        -2.8440578526        1.6261779181       -2.4020093187
 H        -2.3948669143        2.2062230556       -4.0177072709
 H         2.2891720695       -0.7686776017       -2.3691768071
 H         2.1350289954       -0.3959093073       -0.6260688145
 H         0.7937994807       -0.8954699320       -4.2437923099
 H         2.0021790788        0.4704775075       -4.3962831863
 H         0.5706855965        0.2443076360       -5.3608722183
 H        -0.0146676315        2.6448987692       -4.7382233989
 H        -0.5753766058        2.9843733130       -3.1258343404
 H         1.0816490974        2.9477349359       -3.5047274088
 H        -0.0837806252       -1.7014666064       -0.6170072482
 H         0.1932484780       -1.9845990233       -2.2880183198
 H         2.5864709840       -4.5764621102        2.2782769586
 H         2.5150313385       -3.0545804677        1.4948851846
 H        -1.0090000243       -5.3305511953       -0.7463403042
 H        -0.5582459313       -4.4533749464       -2.1070589017
 H        -1.1457907028       -3.6161902040       -0.5913581985
 H         1.4061363186       -5.8805315688       -1.5453454340
 H         2.7885891499       -5.2769555971       -0.6285882360
 H         1.5346892328       -6.2261837100        0.1156161390
 H         2.2901951352       -3.3383973155        4.1515783283
 H         0.6085705693       -3.5412606504        3.6885720343
 H         2.9715064144        2.3265862394        5.4789769930
 H         2.0443250249        1.4567768758        6.6124691177
 H        -1.1015965789       -1.0499312606        3.8793160194
 H        -0.6101714621        0.6022272690        3.5586913856
 H        -0.8415574503       -0.0357665586        5.3279728627
 H         0.9948709626       -0.8784196629        6.5744003515
 H         0.7488270688       -2.3579194119        5.7002721725
 H         2.3990806095       -1.5456389804        5.7388669690
 H         4.4229409246        1.0000133726        6.8729796349
 H         3.5236652510       -0.3964013868        6.7031695099
 H         5.3747781481       -0.5620531727        1.5836990727
 H         3.7709972867        0.1015372548        1.8799086016
 H         5.7082420403        2.6080054742        5.5427281804
 H         7.2039703699        2.5908886725        4.3718809919
 H         7.1190417314        1.5855725900        5.8898932245
 H         6.5966434090       -1.2056085941        3.6132941617
 H         7.5957247639        0.0476900807        2.9810078454
 H         7.7097042996       -0.3087594886        4.6730074944
 H         5.1699465004        0.4770221571       -0.3709150236
 H         6.2218124660        1.5841487336        0.5309114083
 H         2.2950482866        3.8224667318        1.4712254156
 H         2.3200837425        5.4932744199        1.2418335182
 H         4.9128743354        4.6824339896        1.7674256478
 H         5.1760815372        5.5387490687        0.2866905420
 H         6.2830802102        4.1019566004        0.7261703650
 H         4.7433277874        2.9329277754       -2.2470646618
 H         4.9724434825        4.6046647896       -2.1154519176
 H         6.2436389815        3.5982431854       -1.3488488001
 H         0.3305554642        5.7066022078        0.1969133909
 H         0.4456252694        4.0323794133       -0.3819694890
 H        -3.3737549719        3.3087750068        3.1893540324
 H        -4.3378260076        3.8087057640        1.7617783126
 H        -2.7563339928        3.0674330595        1.6452164366
 H        -1.8999210897        4.8040473585        4.7702983361
 H        -0.1726760958        5.2303904013        4.6899781771
 H        -0.7558579601        3.5806991872        4.1649681142
 H        -1.1372446639        7.1404246138        1.7924861848
 H        -1.1472286888        7.1401138745        3.5624597753
 H         0.3586406141        6.5170812306        2.6717971156
 Na        0.8968386979        1.1627827291        1.2025094533
