155

 C        -9.3807071452       -4.7479538075        1.8596574401
 C        -9.0177682573       -3.3742233606        2.3661477124
 C        -7.9733909289       -2.5306930285        1.6245217713
 C        -6.6690727435       -3.4716504745        1.5909313844
 C        -6.1178745477       -3.8094443185        3.0195149736
 C        -8.6007004129       -2.4366563742        0.1203275357
 C        -7.3943233224       -1.3029390937        2.2546132893
 O        -9.4839806003       -3.0139250472        3.4188990817
 O        -6.0276541659       -3.6879309373        0.5781338061
 C        -4.6864504043       -4.3833934709        2.8684722591
 C        -3.5790551164       -3.4706311289        2.4003349082
 C        -2.2392355894       -4.0572218427        1.9703428525
 C        -2.0050973398       -4.0116379283        0.3060802705
 C        -3.0836818775       -3.4518408946       -0.4775440777
 O        -3.8815376978       -2.3001676229        2.1967659551
 O        -1.0010058273       -4.4780203525       -0.1580186817
 C        -1.1191512622       -3.1282945745        2.5916547570
 C        -2.0981803467       -5.5365857434        2.5259325781
 C        -2.5471512146       -3.0945260490       -1.9026899337
 C        -1.4917197048       -2.0426131537       -1.8641137735
 C        -0.3368613683       -2.0920504223       -3.0885525882
 C        -0.7854736778       -0.9577450879       -4.0076551249
 C        -0.8801442331       -1.1323809182       -5.6417961833
 C         1.0544444351       -1.8734416911       -2.4321181523
 C        -0.3761218553       -3.4403675580       -3.8485370528
 O        -1.4159037855       -1.1951054227       -1.0072311005
 O        -0.9378842906        0.1803571593       -3.5348600776
 C        -2.1884504165       -0.3372861850       -6.0078573212
 C        -3.3389563017       -0.8981043177       -5.2350476507
 C        -4.7288812205       -0.1318086628       -5.5296179566
 C        -4.6355140812        1.2103841864       -4.8732183143
 C        -5.5189959885        1.4349591273       -3.5462345925
 O        -3.1810412233       -1.6405951016       -4.2313857142
 O        -3.8115058988        2.0860295248       -5.2519183836
 C        -4.8404170518        0.0878877941       -7.1421856632
 C        -5.8002767853       -1.0220021280       -4.9049429242
 C        -5.3178930418        2.7899280318       -2.8644447089
 C        -4.1535504991        2.6340780868       -1.9334272283
 C        -4.1315142535        3.5552574165       -0.5594576846
 C        -2.7682509146        3.2110339172        0.0937620758
 C        -1.9292967586        4.2846377768        0.8713638715
 C        -4.2995560523        5.0755275462       -1.0528995080
 C        -5.3275255621        3.1254811696        0.3280429744
 O        -3.2178446438        1.9184482093       -2.1447100535
 O        -2.5177070290        2.0092727754        0.2890929580
 C        -0.4223512541        4.0402934831        0.8825880723
 C         0.2265364042        3.6616688775       -0.4585606419
 C         1.7585140963        3.3809417747       -0.4424117677
 C         1.8252445804        1.9578825531        0.3029177668
 C         3.0954059824        1.3489164894        1.0200181574
 O        -0.3364288484        3.5058942636       -1.5033722383
 O         0.8352825582        1.2729773876        0.1854214060
 C         2.1696834620        3.1228857037       -1.9240414517
 C         2.6279976647        4.5321642518        0.1817824916
 C         3.9973760074        0.7288571093       -0.1730763628
 C         5.1185623529       -0.2296342530        0.2633352778
 C         6.5544342799        0.1216371090       -0.2702825167
 C         7.1256305548        1.1244827132        0.8941589885
 C         7.6349056816        0.4142400629        2.2463146393
 C         7.3107184511       -1.1560535685       -0.5734160479
 C         6.8022873421        0.8831664778       -1.7646247275
 O         5.0151922967       -1.0781963340        1.1355740475
 O         6.9115391049        2.2916898253        0.7617502999
 C         8.1217507679        1.4466157715        3.2721600214
 C         9.3445346880        0.9326695997        3.9978190546
 C         9.6914891260        1.6721200411        5.3533637199
 C         9.9497350286        3.1544321817        4.9860603683
 C        10.0718579988        4.3060531554        6.0456447040
 O        10.0300944179        0.0986348564        3.3907938627
 O        10.0505470505        3.5093551518        3.8173956154
 C         8.8040970358        1.3650762530        6.5238785892
 C        11.2169361710        1.2774322544        5.5375041081
 H        -9.7933970381       -4.7015263474        0.8621675049
 H        -8.4632106862       -5.3193977706        1.8470367315
 H       -10.2377865881       -5.2054682048        2.3732232698
 H        -6.0873328989       -2.8942839433        3.7007514765
 H        -6.8413806809       -4.4309692288        3.5735067099
 H        -7.9664477414       -1.9085731056       -0.6036889685
 H        -9.5237242911       -1.9406563157       -0.0561944982
 H        -8.6991555061       -3.5025136324       -0.1599281323
 H        -7.3155551842       -1.4188841939        3.2688060471
 H        -6.3516752671       -1.1758056202        1.9720481086
 H        -7.9375496511       -0.4045692501        2.0118631334
 H        -4.3522349835       -4.7064993751        3.8177413423
 H        -4.6614594311       -5.2989495542        2.2114092610
 H        -3.8628699929       -4.1714744959       -0.5641065361
 H        -3.5392804372       -2.5172957547        0.0179906879
 H        -0.2385335942       -3.8820692654        2.7142720536
 H        -1.3444513466       -2.8231482490        3.6650326304
 H        -0.8255596960       -2.2319707895        2.0868116359
 H        -1.3419940393       -6.1193236090        1.9810513057
 H        -1.8664952135       -5.4336959916        3.6077060888
 H        -2.9870949005       -6.1077452786        2.4463952162
 H        -3.3893761665       -2.6628262620       -2.4877782332
 H        -2.2320422996       -3.9338307187       -2.4523464913
 H         0.0727664112       -0.7247982727       -5.9604936459
 H        -1.0338401315       -2.1406136751       -5.8761503131
 H         1.8890477066       -1.8140628858       -3.2281198788
 H         1.2909194507       -2.7433286277       -1.7136671183
 H         0.9494416722       -1.0945332966       -1.7465665864
 H        -0.3922642577       -4.2005966040       -3.0662661498
 H        -1.3880244410       -3.4206275340       -4.1595870295
 H         0.0948018610       -3.7365564791       -4.7671392795
 H        -2.1179337113        0.7163569914       -5.7348278686
 H        -2.3730518588       -0.2387412104       -7.1514499768
 H        -6.6413654638        1.3380446682       -3.8609394044
 H        -5.2067177544        0.5106828773       -3.0489808794
 H        -4.4747539308        1.1210046025       -7.3918780525
 H        -5.8473439826       -0.2463303512       -7.4374721374
 H        -4.1931696331       -0.5783000623       -7.7673023941
 H        -6.7192361409       -0.5336905205       -4.7402582258
 H        -5.9408043170       -1.9364105582       -5.5544790813
 H        -5.5840461188       -1.4153199929       -3.9064578593
 H        -6.2124509984        3.1774774146       -2.3767113216
 H        -4.9754352251        3.5353601986       -3.6545655270
 H        -2.1961049622        5.3206311518        0.6604127430
 H        -2.3083498789        4.0788029238        1.8456618414
 H        -3.4449684962        5.2800567664       -1.6613618478
 H        -4.2167714772        5.7330151936       -0.2664140230
 H        -5.2615367106        5.3354522341       -1.5724660629
 H        -5.1853521396        3.4910507868        1.3343573036
 H        -6.2534032398        3.4803457778       -0.1478327357
 H        -5.5252506614        2.0737559083        0.5343337328
 H         0.1045886562        4.8451397563        1.4322157535
 H        -0.2947783354        3.1248651153        1.5009749552
 H         3.7350726498        2.1917752297        1.3460353663
 H         2.7976812130        0.6694921356        1.7801547888
 H         2.1316283205        3.9734733478       -2.4822933431
 H         1.4181500290        2.4230662237       -2.3192015354
 H         3.0886097248        2.6753234134       -1.9694303327
 H         3.6895592412        4.2779833551        0.1105536876
 H         2.2970878200        5.5132787849       -0.1692686038
 H         2.2760272642        4.5884634690        1.2792635741
 H         4.6589796660        1.6058514117       -0.4442577664
 H         3.4129068871        0.3487569908       -0.9525015778
 H         6.7755714118       -0.0780639346        2.7128376361
 H         8.4646155988       -0.2834506038        2.1118130922
 H         6.8452158354       -2.0077501535       -0.0488880892
 H         8.3763997179       -1.1206905327       -0.3279367967
 H         7.3418947841       -1.3840383652       -1.6407226221
 H         7.8473522051        0.8641135634       -1.7841279120
 H         6.3283356908        0.3578238541       -2.5705471494
 H         6.4818316029        1.9632289931       -1.9580996111
 H         8.5805609795        2.2224087547        2.6209535798
 H         7.2731935741        1.7524270507        3.8769382417
 H         9.5119313294        4.1147461861        6.9363479662
 H        11.1043237201        4.4480548884        6.4076276405
 H         9.8717805209        5.2162125992        5.4666930143
 H         9.2420351110        1.7301101195        7.5130727400
 H         8.6743451139        0.2627449327        6.6754264949
 H         7.8292629260        1.9258033551        6.4004177183
 H        11.7217548387        2.0266193329        6.0832900601
 H        11.2991367416        0.3285843921        6.1611071792
 H        11.7984571582        1.0408691090        4.6713616314
 Na       -1.2029619715        1.1305202002       -1.3331988474
