155

 C        -6.0327284283       -8.1556347002       -3.6658942053
 C        -5.8197219824       -6.6868871701       -4.1115410611
 C        -6.9303095709       -6.0368806611       -5.0510402620
 C        -7.3616968960       -4.6091301495       -4.6112637233
 C        -6.2928647864       -3.4821138123       -4.4942021975
 C        -6.2798147394       -5.9450968159       -6.4655883299
 C        -8.1938159723       -6.8488309307       -5.3557799668
 O        -4.9231969729       -6.0436295228       -3.7398171705
 O        -8.5377013636       -4.3837422022       -4.4719921353
 C        -6.6304981360       -2.5088200647       -3.4222053933
 C        -6.3528571681       -1.0828547966       -3.9036747557
 C        -6.4004438979        0.1127147479       -2.9688978878
 C        -4.9126499499        0.2651158719       -2.3010101490
 C        -3.6887197965        0.1599924026       -3.2240007483
 O        -6.0295186968       -0.8032817032       -5.0427646995
 O        -4.8745095652        0.5820729296       -1.1279904673
 C        -6.6497870235        1.3866537654       -3.8167426129
 C        -7.4161249418       -0.0166542585       -1.7735856833
 C        -2.4490647942        0.7422413371       -2.5506508036
 C        -1.1781907302        0.4484512989       -3.2669773846
 C         0.2363126345        1.2764256633       -3.1208861258
 C         0.8539086318        1.0699221596       -1.7351238138
 C         1.8603831374       -0.0992397369       -1.4084493986
 C         1.1278890970        0.7193090417       -4.2155589074
 C         0.0657174224        2.7830855920       -3.3474743032
 O        -1.1394320971       -0.6111019908       -3.8954863504
 O         0.4159823064        1.8067765166       -0.8114981452
 C         1.0125958083       -1.3899089143       -1.2140093877
 C         1.9375313492       -2.6349950958       -1.2398953419
 C         1.2181302225       -3.9499801418       -0.8690823346
 C         1.0227134790       -3.6750117791        0.6089567903
 C         2.2159867738       -3.4764160571        1.6030034153
 O         3.0582111666       -2.5239171528       -1.4932561516
 O        -0.1210330484       -3.5561142994        1.0205453454
 C        -0.0830884756       -4.3484348774       -1.6635161487
 C         2.3541140638       -5.0002045061       -1.0002695092
 C         1.6991247699       -2.9373475121        2.9318931972
 C         1.0524805538       -1.5623372783        2.8443778006
 C         0.2928746144       -0.9038508781        4.1056664074
 C         1.2222387301        0.3283202385        4.3977052920
 C         1.8576336123        0.5118077165        5.7535959090
 C        -1.1041294252       -0.4622390002        3.6709037752
 C         0.1350268994       -1.8138142203        5.3165442810
 O         1.2224116924       -0.7940213848        1.8834795668
 O         1.4789284707        1.1606622721        3.5376432425
 C         3.0126683583       -0.4648354850        6.0302358219
 C         4.0672862537       -0.2391413713        4.9430821501
 C         5.2814106252        0.8117318011        5.0416321436
 C         5.5910406779        1.6586683058        3.7353830255
 C         5.8871408674        0.9660199298        2.3520045051
 O         4.1999445821       -1.0354029249        3.9978105757
 O         5.7088559390        2.8868789927        3.6305328275
 C         5.0236963143        1.8344266901        6.2194517897
 C         6.5294144935        0.0068159614        5.4305917000
 C         5.9496936845        1.9943827356        1.1283555656
 C         4.5219228636        2.5955001648        0.7385657114
 C         4.2807529269        4.0180609228        0.1854735618
 C         2.7338437901        4.2665894914       -0.1296983061
 C         1.9483048416        4.7871659179        1.1017452782
 C         4.8008614088        5.0415052769        1.1698057143
 C         5.0581012546        4.0668610301       -1.1596257445
 O         3.6336137239        1.8294898133        0.9334323081
 O         2.3843737531        4.1606044481       -1.2668575312
 C         0.4051896729        5.1484102848        0.7055095549
 C        -0.6209783724        4.3753849124        1.6946467044
 C        -1.9856637694        5.0068762291        2.0347100326
 C        -2.9660797735        4.6100655705        0.7966548179
 C        -4.1571558418        3.6376230916        1.0183252258
 O        -0.4184748971        3.1879582303        2.0927477805
 O        -2.8140403291        5.0269233957       -0.3429989179
 C        -2.3817164147        4.5041216045        3.4555404461
 C        -2.1836049455        6.5419622510        2.0758481140
 H        -6.3239405810       -8.7918771756       -4.4262586103
 H        -5.2561784872       -8.7578152141       -3.1133419042
 H        -6.9298560191       -8.1034567913       -2.9749731466
 H        -5.3329043190       -4.0169790463       -4.3683305036
 H        -6.1459504681       -2.9411386116       -5.4702501141
 H        -7.1177378843       -5.5009947201       -6.9850433183
 H        -6.0015476283       -7.0082909570       -6.7445761387
 H        -5.5477924642       -5.1364643486       -6.3743029629
 H        -8.6775035048       -7.2484660758       -4.4668400901
 H        -8.8922367839       -6.2199284417       -5.9840469402
 H        -8.0212747467       -7.7193937242       -5.9431034930
 H        -7.6330926213       -2.5893996135       -3.1459314733
 H        -6.0086764808       -2.6681144643       -2.5055584319
 H        -3.5056854978       -0.8086612684       -3.5920018325
 H        -3.9122529813        0.6060507229       -4.1460990615
 H        -7.2442089687        1.1524391952       -4.7190115225
 H        -5.6728348279        1.8635932569       -4.1625980506
 H        -7.2744125192        2.0012587730       -3.2687156929
 H        -7.4958261773        0.9134152608       -1.2718559265
 H        -8.3575423490       -0.3949339262       -2.1247028719
 H        -7.0138557356       -0.6400354950       -0.9560425597
 H        -2.3618557845        0.4820339113       -1.5385697418
 H        -2.5723745141        1.8660209739       -2.4412134624
 H         2.4733874507       -0.0735757483       -2.2566721514
 H         2.5396661440       -0.0023992062       -0.4707769671
 H         1.3114809486       -0.3213596021       -4.1370700037
 H         2.0179536190        1.2842310980       -4.1880075199
 H         0.5282786244        0.5280486173       -5.1407326699
 H         0.2021417647        2.9703341348       -4.4730514479
 H        -0.9293626872        3.1051465882       -3.0101385331
 H         0.8808569943        3.2529207790       -2.8649523188
 H         0.3965916019       -1.3925159133       -0.3273930211
 H         0.2212133499       -1.4665063498       -2.0564037379
 H         2.8496459887       -4.3254820168        1.8487038501
 H         2.8587604566       -2.7250819856        1.2513851681
 H        -0.2738826453       -5.3671836572       -1.4433483207
 H         0.0997638086       -4.2828918239       -2.7711267089
 H        -0.8718871034       -3.7617882285       -1.1846340445
 H         2.3590783712       -5.5081046499       -1.9968325671
 H         3.3692366350       -4.4811603137       -0.8463749385
 H         2.3089001713       -5.8480216380       -0.2534403263
 H         2.5486403320       -2.9147506685        3.5911760117
 H         0.8876368716       -3.6746872332        3.2334087934
 H         2.1998635066        1.5386998906        5.8222780466
 H         1.0918943654        0.2578256474        6.5207842827
 H        -1.6403976315       -1.2262722468        3.1411118113
 H        -1.1925299156        0.2912026160        2.9327800104
 H        -1.6618363640       -0.1833556937        4.5135149450
 H        -0.5056098120       -1.4075668010        6.0426556553
 H        -0.3029925778       -2.7507254007        4.9074945741
 H         0.9585744161       -2.1136870215        5.9300335265
 H         3.3509970384       -0.2242276346        6.9857450298
 H         2.5820560866       -1.4984722673        6.2254154197
 H         6.9520492200        0.6462791387        2.4600782058
 H         5.2706048897        0.1075693494        2.1226662140
 H         4.0564860982        2.3614934400        6.0557956731
 H         5.8086334987        2.5980629088        6.1547373750
 H         5.0124199401        1.2710824911        7.0998458688
 H         6.9259776297       -0.7198921949        4.7056123884
 H         7.2716911610        0.8144706792        5.5548516474
 H         6.5925253869       -0.5581407374        6.4133171217
 H         6.3179372213        1.5028382137        0.2430749024
 H         6.6686674215        2.8287657111        1.1943591417
 H         1.8641418919        4.0940904343        1.9852291123
 H         2.4404391728        5.7339781650        1.3810579741
 H         4.0773674398        5.1007570692        1.9435378107
 H         4.7809842169        6.0263259016        0.6895318036
 H         5.7811908995        4.7148526938        1.5418705633
 H         5.0221253938        3.2011246257       -1.8384680149
 H         4.6787571480        4.8417868451       -1.7933420198
 H         6.0533324735        4.3103223950       -0.9270441911
 H         0.2496619561        6.2794799035        0.6950137641
 H         0.2250479643        4.7563608894       -0.2747194187
 H        -3.8700612857        2.9775748379        1.8821707341
 H        -5.0724917680        4.2556872053        1.1950475510
 H        -4.2446403314        2.8843894448        0.2897064042
 H        -2.6523520816        3.5043379529        3.4933828793
 H        -3.2387868454        5.0616908761        3.9889979905
 H        -1.5090060924        4.5290108410        4.0892139804
 H        -2.1030125354        6.9854431793        1.0903984442
 H        -3.2015337932        6.8064843399        2.3667566605
 H        -1.4770911496        7.0880460824        2.7750689133
 Na        1.2227038031        1.5611772792        1.3659699459
