155

 C        -9.4797949100       -4.6171067925        1.9949914670
 C        -9.0821346415       -3.2009724068        2.4016965019
 C        -7.9483167277       -2.4995716369        1.6178150746
 C        -6.6833182373       -3.4374669505        1.6325976181
 C        -6.0151492605       -3.7864503298        2.9993098289
 C        -8.2312707287       -2.2935336270        0.0957671196
 C        -7.7509351188       -1.0301308172        2.2439382494
 O        -9.6251192836       -2.7160716724        3.3667631826
 O        -6.1695307168       -3.9087626989        0.6756108169
 C        -4.6693190294       -4.4334147504        2.9466642307
 C        -3.6309624133       -3.4816722140        2.3499785158
 C        -2.2380230750       -4.0826666343        1.9373959602
 C        -2.0626589402       -3.9956596985        0.4368088580
 C        -3.1112238619       -3.4223913305       -0.5246719629
 O        -3.8568128187       -2.3026202915        2.3407771401
 O        -0.9586633710       -4.3795303173        0.0021393212
 C        -1.1475902482       -3.0890291405        2.4122721003
 C        -1.9115200809       -5.4660001203        2.3863757320
 C        -2.6011362674       -3.2746505041       -1.9449324765
 C        -1.5176274708       -2.1605721246       -2.0206491279
 C        -0.4490874749       -2.0610968199       -3.1803030093
 C        -0.7859001407       -0.8776961109       -4.1081385271
 C        -0.9949499880       -1.1918372119       -5.6410347103
 C         0.9423941000       -1.7248431212       -2.5075425430
 C        -0.1965720488       -3.4744510085       -3.8059707743
 O        -1.6262344812       -1.2276116486       -1.1865682780
 O        -0.6630407067        0.2699912017       -3.7027939697
 C        -2.2017396028       -0.6315371120       -6.2533743155
 C        -3.4183218448       -0.8898654657       -5.2573332190
 C        -4.8272486972       -0.0267993534       -5.4357585201
 C        -4.7094652333        1.3397036096       -4.6356650959
 C        -5.7279372495        1.5217170412       -3.4586067463
 O        -3.3638025714       -1.6914069572       -4.3741363472
 O        -3.8655131560        2.0970574179       -5.0855416191
 C        -5.1751354270        0.3575951770       -6.9064560323
 C        -5.9715754232       -0.9712128493       -4.9947756547
 C        -5.4121974088        2.7852972455       -2.6646912151
 C        -4.1637242878        2.5935934157       -1.7464823631
 C        -4.0049594737        3.5261700818       -0.3719226496
 C        -2.6291894500        3.1031561874        0.2447942367
 C        -1.7817038132        4.3007751169        0.8860093028
 C        -4.1213025306        4.9814708716       -0.8226312865
 C        -5.1869769746        3.1884586269        0.6461939518
 O        -3.3557334175        1.7595737598       -2.0853360847
 O        -2.3063152566        1.9660578090        0.4332851605
 C        -0.3544653722        3.7583550441        1.0469282285
 C         0.2720791901        3.6111451165       -0.3465319122
 C         1.7110618611        3.1246971702       -0.5027444453
 C         1.7873887175        1.7092108320        0.2251990368
 C         3.1710095538        1.2450787413        0.9642141562
 O        -0.4857739763        3.6579813330       -1.3277834407
 O         0.7617507692        1.0518960925        0.1466885747
 C         2.1784617353        2.9752696071       -2.0012944289
 C         2.8210555487        4.0960992797        0.1366192047
 C         3.9346112557        0.7618026592       -0.2220099780
 C         5.0785120129       -0.2187756668        0.2375248858
 C         6.5797497867        0.1744567756       -0.2756331472
 C         7.1524018919        1.1927794363        0.8015767536
 C         7.6865327150        0.5588105109        2.1276914624
 C         7.4683191852       -1.0996256722       -0.1994656443
 C         6.4466510902        0.8655581447       -1.6659297931
 O         4.9782454162       -1.1626069658        0.9486973952
 O         6.8952055806        2.3702793108        0.5580736079
 C         8.2934966760        1.6538476750        3.0905001785
 C         9.4517983204        1.0301925213        3.8626185324
 C         9.9864434705        1.7402613264        5.1574466881
 C        10.1945652506        3.2359235277        4.8200939844
 C        10.0918488606        4.2407684681        5.9670596255
 O        10.0296992066        0.0603686731        3.4858431879
 O        10.2491176919        3.6224944825        3.6887219612
 C         8.8828272508        1.5522851794        6.2814852790
 C        11.2224515681        1.1016008389        5.7438237901
 H        -9.7176232562       -4.7805061829        0.9298366976
 H        -8.7596380123       -5.3735097931        2.3708884549
 H       -10.4318912499       -4.7385959562        2.5055073541
 H        -6.1265683277       -2.8906342476        3.5276685757
 H        -6.5562970130       -4.4771475598        3.6574520747
 H        -7.6012934675       -1.4775232625       -0.1663468828
 H        -9.2146155779       -1.8105596573       -0.0560927953
 H        -8.1862628442       -3.0963110385       -0.5798896111
 H        -8.1662911928       -0.9468726181        3.3007809849
 H        -6.6934900248       -0.7955511768        2.4004104564
 H        -8.1832588988       -0.2393827629        1.5941072960
 H        -4.3321272270       -4.7416292320        4.0066786385
 H        -4.8023781921       -5.3661629793        2.4114567116
 H        -4.0370313690       -4.0686901175       -0.6255395028
 H        -3.4833416936       -2.4692407817       -0.2525807167
 H        -0.1448807594       -3.3738396484        2.1373884487
 H        -1.1697612964       -2.9466188198        3.4591881443
 H        -1.4721097349       -2.1337031954        1.9931627787
 H        -1.0191079516       -5.7260295965        1.8820345636
 H        -1.8797862049       -5.5900164450        3.4366733174
 H        -2.6132257224       -6.1932588326        1.9264781060
 H        -3.4724443234       -3.1319170969       -2.5920250539
 H        -2.0716374307       -4.2302343945       -2.3103511022
 H        -0.1011416372       -0.6537215067       -6.0206301464
 H        -0.8926086630       -2.2996616360       -5.8839472199
 H         1.7274931243       -1.6886156637       -3.2248273849
 H         1.0997762662       -2.4184681070       -1.7438623854
 H         0.7909177459       -0.7871057964       -1.8794818613
 H         0.0908503460       -4.1757144054       -3.0178189893
 H        -1.0179879391       -4.0182214402       -4.3315115111
 H         0.5571000763       -3.2834827979       -4.5616152944
 H        -2.0505530718        0.4889549129       -6.3051989430
 H        -2.2946920798       -0.8715861630       -7.2678267266
 H        -6.7223866402        1.4504491669       -3.8057426742
 H        -5.5045808162        0.6343157251       -2.8010687879
 H        -4.3157124915        0.4348868740       -7.5131905112
 H        -5.8964090751        1.1428169409       -6.9235223743
 H        -5.7554842255       -0.4286873557       -7.3339007107
 H        -6.9442454984       -0.4144104205       -4.9856074389
 H        -6.0683876241       -1.7952546505       -5.6599151786
 H        -5.9159763439       -1.4701947752       -4.0245683882
 H        -6.2855833748        2.9127142616       -2.0044086515
 H        -5.2603171653        3.6879796260       -3.1940418975
 H        -1.8264905516        5.2176573217        0.2708634650
 H        -2.2584499568        4.5173053298        1.8864121241
 H        -3.3348221469        5.3521693911       -1.5163820175
 H        -4.1412535177        5.6162840485        0.1504512707
 H        -5.0771517525        5.1517609715       -1.3067094313
 H        -5.0130421105        3.9236967719        1.4753259235
 H        -6.1880115425        3.1582022747        0.3205830381
 H        -5.0814554793        2.1929758014        1.0553325890
 H         0.2599034243        4.2910162911        1.7568351788
 H        -0.4964957337        2.7662176708        1.4787592115
 H         3.5071050557        2.1683638575        1.3832486478
 H         2.9250214624        0.4371448686        1.7199640757
 H         2.2104472787        3.9749892640       -2.5656085366
 H         1.4825990814        2.3461760889       -2.5505295493
 H         3.2239541953        2.4854179121       -2.0225124900
 H         3.7707314042        3.7390553190       -0.1482972737
 H         2.6718423431        5.1009191253       -0.2623879473
 H         2.8317555640        4.0338905083        1.1728633524
 H         4.3760939321        1.5971810076       -0.6757407377
 H         3.1661245434        0.2171826499       -0.8761931344
 H         6.8710383578        0.0297139019        2.6152776718
 H         8.4729245413       -0.1642200832        1.9424273586
 H         7.6645991336       -1.4040319100        0.7956898193
 H         8.3983843953       -0.9658415725       -0.7565459860
 H         7.0583677560       -1.9366930074       -0.7775084362
 H         7.2050183003        0.4735650650       -2.3838844668
 H         5.4295308890        0.6562525691       -2.0105200484
 H         6.6421139745        1.9142380680       -1.6862900551
 H         8.7136274878        2.3813906548        2.4635955341
 H         7.4943046668        2.0105147606        3.7069684796
 H         9.0715531626        4.0911498387        6.3752228564
 H        10.7593373846        4.1210899933        6.8138694194
 H        10.3270476296        5.2069476090        5.5427570088
 H         9.0734788225        2.0955821676        7.1859822246
 H         8.9351435902        0.4999327750        6.5525989939
 H         7.8757193757        1.8238923776        5.9902010811
 H        11.5853073526        1.6180425710        6.6679986309
 H        11.0081842491        0.0939868860        6.0062962425
 H        12.1012060052        1.1105191642        5.0554765264
 Na       -1.1238685578        1.0457464037       -1.5775032752
