155

 C        -5.2614462232       -8.2119578750       -4.3704363316
 C        -5.5978980404       -6.6857654566       -4.2535750372
 C        -6.5090266324       -6.0400022153       -5.3701481058
 C        -7.3106697433       -4.8702016464       -4.5807468788
 C        -6.5529075130       -3.5367529521       -4.3430675814
 C        -5.5453998841       -5.6773261956       -6.6230920464
 C        -7.5147431967       -6.9827345845       -5.9173064058
 O        -5.1352660315       -5.9992427546       -3.2916779232
 O        -8.4537484844       -5.0829657739       -4.2796737746
 C        -7.0499992233       -2.4178942172       -3.3496950011
 C        -6.3721459704       -1.0900179952       -3.6646937507
 C        -6.1609283080       -0.1799188824       -2.4403293920
 C        -4.7229151600       -0.1679717322       -1.7568006001
 C        -3.5832524586       -0.2808080280       -2.6892060514
 O        -5.8494063782       -0.7681596592       -4.7214002976
 O        -4.5990818324        0.1347685833       -0.5994940642
 C        -6.3304635007        1.2950245663       -3.0830990290
 C        -7.2902807558       -0.2487147176       -1.3894331659
 C        -2.4157531378        0.6138675333       -2.2866046741
 C        -1.2588681674        0.4215608594       -3.2862843522
 C         0.0254748576        1.5002135515       -3.1968989864
 C         0.8767049443        1.1343063563       -1.9483588435
 C         2.0020241515        0.1197310506       -1.9192717767
 C         0.7796518690        1.3556624558       -4.5981191108
 C        -0.5767364306        2.9203852213       -3.0312478155
 O        -1.2468916295       -0.4854756886       -4.0749545485
 O         0.5014159666        1.6537714306       -0.8595240027
 C         1.4403142432       -1.2863580235       -1.9489299528
 C         2.3980269930       -2.3698926551       -1.5694136927
 C         1.7862557192       -3.8323692238       -1.0626458856
 C         1.2742364169       -3.6562293694        0.4161742098
 C         2.3899151690       -3.6129594166        1.5064256725
 O         3.6521151263       -2.1946380099       -1.5349925527
 O         0.1160123984       -3.4171337705        0.7322809390
 C         0.6022806984       -4.1831500795       -2.0418951015
 C         2.8198157831       -5.0093381934       -1.0984638334
 C         1.7659003455       -3.0133412432        2.8471839583
 C         1.2356372160       -1.6149686894        2.7048090327
 C         0.1981640555       -1.1174884102        3.7608451769
 C         0.8783603493        0.1201472542        4.5112829885
 C         1.1302255930        0.1648421719        6.0662426636
 C        -1.0223817494       -0.6783815324        2.9526511030
 C        -0.2290054383       -2.1454728335        4.7686017308
 O         1.5296151858       -0.8591751236        1.7705494669
 O         1.2609632247        1.0497951058        3.8491076203
 C         2.5964127321        0.2389223882        6.4901206489
 C         3.5751011059       -0.1338406965        5.3298600980
 C         5.0654726260        0.6397454092        5.4492250213
 C         5.0918157126        1.7302182739        4.3175561341
 C         6.0786726726        1.6264009820        3.1497148358
 O         3.3762830784       -1.0225702174        4.5818623074
 O         4.2720828981        2.6462289323        4.2385531999
 C         5.1659831263        1.3908385325        6.7321295249
 C         6.2609081743       -0.3705921997        5.4057167791
 C         5.8498908492        2.6212497812        2.0077310143
 C         4.4211274372        3.0188034064        1.4465892337
 C         4.2406149344        4.6403197480        1.0971266195
 C         2.9210941307        4.7912132918        0.3512453779
 C         1.6680160826        4.7540394177        1.1950304028
 C         4.4003350321        5.3494875587        2.4636918839
 C         5.4040368497        4.9339834368        0.0903098362
 O         3.5507543777        2.2149433062        1.0907152211
 O         2.8375052565        4.9344373028       -0.8647584038
 C         0.4209209660        4.6537823481        0.3685680720
 C        -0.8616803950        3.9315816729        1.0589465708
 C        -2.3320871408        4.4871125560        0.9425786792
 C        -3.0128151810        4.6861199103       -0.5297930743
 C        -4.4880383067        4.0699737865       -0.7639115619
 O        -0.6247217394        2.9116968371        1.6546566005
 O        -2.3711550088        5.2172987903       -1.3644114824
 C        -3.1672181031        3.6054869730        1.8756220184
 C        -2.2855874845        5.9338871559        1.4988936606
 H        -5.1062921597       -8.4503047683       -5.5110387239
 H        -4.3694492944       -8.5368400496       -3.8167596142
 H        -6.0713985107       -8.8592423114       -4.0882071395
 H        -5.5101380302       -3.7226347514       -4.0727805595
 H        -6.6314962660       -3.1168459828       -5.3470507219
 H        -6.2197614719       -5.0791493336       -7.2985287551
 H        -5.2715688422       -6.6476993739       -7.0368024488
 H        -4.6230992231       -5.2616430514       -6.2225478614
 H        -8.1091269255       -7.3423520380       -5.0559572427
 H        -8.1321277149       -6.4864721361       -6.6290161903
 H        -7.1370677642       -7.8782108789       -6.3573963617
 H        -8.0598205879       -2.2916430128       -3.3819234120
 H        -6.8141440660       -2.6862590898       -2.2742473575
 H        -3.2166933498       -1.3518256338       -2.7402980719
 H        -3.8010408063        0.0997659300       -3.7494876104
 H        -7.3589630059        1.4631066955       -3.2974066155
 H        -5.6318889902        1.3625740578       -3.8804342608
 H        -5.9946406764        1.9809227675       -2.2817301848
 H        -7.1595311013        0.5951934376       -0.7322831149
 H        -8.2377874079       -0.2275881568       -1.9144848198
 H        -7.1344757073       -1.0336744902       -0.7363450714
 H        -2.1166325408        0.4352935204       -1.2808591274
 H        -2.8751763117        1.6507101096       -2.4342902158
 H         2.6921617238        0.1454236584       -2.8161676314
 H         2.5958223812        0.3836460177       -1.0615046471
 H         0.6112736598        0.2979823056       -4.9747036755
 H         1.8583707660        1.6821162486       -4.6320070342
 H         0.3949344130        2.0562201118       -5.2718779906
 H        -1.5476730387        2.9556782048       -3.5017970458
 H        -0.7286818513        3.1274964376       -1.9586240651
 H        -0.0577331020        3.7707613466       -3.5794803945
 H         0.6958185921       -1.4213315763       -1.2364204841
 H         1.0524295720       -1.5436762272       -2.9623843208
 H         2.7810731848       -4.6800980573        1.6968486317
 H         3.2990519861       -3.1032448845        1.2007151593
 H         0.2999915159       -5.2154566227       -1.7689491400
 H         1.0275570848       -4.2276983133       -3.0243824692
 H        -0.2045352464       -3.4121759646       -2.0533532982
 H         2.8983813781       -5.2671076834       -2.1837353356
 H         3.8369228200       -4.7940832790       -0.7343780858
 H         2.5234386478       -5.8735641942       -0.4401429745
 H         2.4328958624       -2.9881590362        3.6789660652
 H         0.9328251109       -3.7239379679        3.1661387761
 H         0.5945833510        1.1619861474        6.2854823475
 H         0.6539424127       -0.5963619299        6.6035489679
 H        -1.5255644941       -1.5913044739        2.5514489520
 H        -0.8318518776        0.0214841836        2.1287514041
 H        -1.8371854942       -0.1732085281        3.5242579037
 H        -0.8750305095       -1.5785407456        5.4967422912
 H        -0.8277001753       -2.9430803770        4.3377857714
 H         0.5232600196       -2.5628012672        5.4109548321
 H         2.8374380266        1.1500355966        7.0564884292
 H         2.7817285779       -0.6127123900        7.1536153189
 H         7.1256047932        1.6495424298        3.5001426334
 H         6.0060412455        0.6160572763        2.7180523150
 H         4.6031888797        2.2862625729        6.6198417500
 H         6.2043668320        1.5504992110        6.9608864543
 H         4.9407986386        0.8494593355        7.6905139385
 H         6.3562568061       -1.0100016094        4.5275816472
 H         7.1705869657        0.1964611364        5.4635360093
 H         6.1666479629       -0.9420487510        6.2939932358
 H         6.3395669308        2.2025633950        1.1488742601
 H         6.3123750239        3.6698261001        2.3239339238
 H         1.7104708890        3.8720010303        1.8957129679
 H         1.6142450792        5.5402855231        1.8998480283
 H         4.6979913365        4.6684204832        3.3151785618
 H         3.4778613775        5.8553581739        2.7569238162
 H         5.2143012790        6.1056110074        2.5270295188
 H         5.4542824113        4.3665542814       -0.7971412780
 H         5.2992085379        5.8957618749       -0.3724211018
 H         6.4740746018        4.8176186416        0.4714146791
 H         0.1816034879        5.6833251410       -0.0294926385
 H         0.6299203680        4.1428731110       -0.5681627410
 H        -4.4418254924        3.1492981287       -0.2920031627
 H        -5.1837134817        4.5854194702       -0.1102727742
 H        -4.7462977189        4.2583055114       -1.8209343260
 H        -2.7702249244        2.5493138034        1.8880575713
 H        -4.1651582713        3.5794260068        1.6680084830
 H        -3.1065644292        3.9799278474        2.9074843184
 H        -1.5692012766        6.6487849029        1.1227402632
 H        -3.2164787184        6.5614514788        1.3626052502
 H        -2.1107212936        5.9199922122        2.5412845442
 Na        1.3695958566        1.5241887951        1.3152141107
