155

 C        -5.0857110594       -8.1941735848       -4.5391291492
 C        -5.4659020108       -6.7493878237       -4.2272387091
 C        -6.5311763715       -6.0162438194       -5.2501188694
 C        -7.2859753565       -4.8086070377       -4.6136878528
 C        -6.3985039722       -3.6177287650       -4.2634093225
 C        -5.5364466390       -5.3171234017       -6.3007444992
 C        -7.5630424196       -7.0380452488       -5.9102074804
 O        -4.8661352790       -6.0405811836       -3.4956102664
 O        -8.5010104356       -4.7795159723       -4.3771060798
 C        -7.0238550460       -2.6729875364       -3.2469775816
 C        -6.3839354262       -1.2523256696       -3.4230393052
 C        -6.2644311378       -0.0231632889       -2.4214797067
 C        -4.8000208730       -0.0369522085       -1.9014235776
 C        -3.6473671577       -0.1631885867       -2.8459483148
 O        -5.8541845367       -1.0889818185       -4.5186925009
 O        -4.5608917026       -0.1252856013       -0.6923093469
 C        -6.4848478280        1.3162256014       -3.1380929758
 C        -7.1747633710       -0.2303706613       -1.1327646996
 C        -2.3446305025        0.6820362826       -2.4074822826
 C        -1.1792261786        0.4188445727       -3.4030342160
 C         0.0638131884        1.4736769307       -3.2455175531
 C         0.7883084489        1.0408672060       -1.8922681900
 C         1.9068042687       -0.0199028968       -1.9368345725
 C         1.0145287172        1.2311713596       -4.4364614073
 C        -0.4383897373        2.9600176747       -3.1770280289
 O        -1.1148328392       -0.5414551068       -4.1137992183
 O         0.3940662581        1.5647305585       -0.8962513490
 C         1.3282436532       -1.4223418066       -1.8479899829
 C         2.5371409298       -2.4588052289       -1.5837560639
 C         1.9753388382       -3.8348946761       -1.0353055612
 C         1.3855707583       -3.3982838108        0.3153296310
 C         2.4746305819       -3.3394701134        1.4507186236
 O         3.6578544160       -2.1491687814       -1.6898749965
 O         0.1864406729       -3.2439727871        0.4342063996
 C         0.8285694397       -4.2547558399       -2.0093715629
 C         3.0644154256       -4.9220896845       -0.9791154774
 C         1.8968823591       -2.9849829430        2.7468601083
 C         1.3155323469       -1.5881128687        2.7134552907
 C         0.2612076424       -1.0852733091        3.6975462147
 C         0.9293021168        0.1376251698        4.4260387916
 C         1.0971804889        0.1011956183        5.9381739309
 C        -1.0009073047       -0.6057152852        3.0124104008
 C        -0.1853684581       -2.1993773014        4.6654490428
 O         1.4822427218       -0.9118629869        1.7280807013
 O         1.2129038245        1.1533527314        3.8120676429
 C         2.4740232557        0.6691584078        6.3259593149
 C         3.5355134132       -0.0061120091        5.4986751759
 C         4.9372423889        0.5133570826        5.5233503461
 C         4.7714328968        1.7334320943        4.3901655967
 C         5.8126026605        1.6148304578        3.2638850389
 O         3.3615657610       -0.9489780891        4.6839254033
 O         3.8697653187        2.4846740301        4.4843516140
 C         5.2446620261        1.2210980683        6.9968166127
 C         6.0392603100       -0.4820694258        5.1107251680
 C         5.9527834184        2.7262929551        2.1532897152
 C         4.5253545366        3.0535525146        1.4842220969
 C         4.1846361699        4.5574448988        1.2334681498
 C         2.8612706441        4.6671119038        0.4538390154
 C         1.5312427372        4.6991664474        1.1506952631
 C         4.1674227902        5.3278493084        2.6267796526
 C         5.3780174305        5.1491394101        0.4149317810
 O         3.8587298040        2.1107863620        1.2115644990
 O         2.8961747071        5.0391726989       -0.7357712926
 C         0.2214763808        4.9157543384        0.2601048759
 C        -0.8685517748        3.9591694473        0.8148375678
 C        -2.4403831999        4.5427749163        0.9606258182
 C        -2.9964454316        4.7473080451       -0.5398272818
 C        -4.3531257647        4.0620184090       -0.8417649375
 O        -0.7403372919        2.7750939546        1.1616102618
 O        -2.2566460094        5.3227539514       -1.3522424154
 C        -3.2434533876        3.5514806538        1.7619039591
 C        -2.4419461385        5.8744803886        1.6348293869
 H        -4.8409307912       -8.3392533923       -5.5187357238
 H        -4.2085664989       -8.4550307924       -3.9500512957
 H        -5.8975178631       -8.8960043477       -4.2756124167
 H        -5.4178562690       -3.9210357477       -3.9133424701
 H        -6.3712604810       -3.0366251603       -5.1811396554
 H        -6.1826442458       -4.9491521584       -7.0217125069
 H        -4.9227019177       -6.1012295812       -6.6983202712
 H        -4.9804866935       -4.5456673864       -5.8027697460
 H        -8.5560441101       -6.9528843265       -5.5476836142
 H        -7.4859096965       -6.9935126658       -7.0180473648
 H        -7.3092132883       -8.0724556685       -5.6920714859
 H        -8.1055346200       -2.5924291999       -3.6392078132
 H        -7.0846753716       -3.0086386281       -2.2141702207
 H        -3.2322012470       -1.1242846382       -2.7754291850
 H        -3.8675639831       -0.0001035962       -3.8416776884
 H        -7.5268686695        1.5685599895       -2.9218005342
 H        -6.1999063231        1.1302495973       -4.2021655990
 H        -5.8704753076        2.0414951007       -2.6948645026
 H        -6.9151509876        0.5687523691       -0.4312537340
 H        -8.2274894357       -0.2769345059       -1.4431949212
 H        -6.8280863648       -1.0979383197       -0.4876783084
 H        -1.9577964249        0.2222331555       -1.4701369420
 H        -2.5704607350        1.6944431513       -2.3218385578
 H         2.4191080402        0.1465161482       -2.8460142872
 H         2.6573738051        0.1697072398       -1.1111937688
 H         1.2259112115        0.2033627554       -4.5612459109
 H         1.9229946045        1.7840043942       -4.1925229952
 H         0.6062676127        1.5491703020       -5.5054713909
 H        -0.8545654826        3.3870756020       -4.1105949728
 H        -1.1765765042        3.0433736089       -2.4112107664
 H         0.3374849497        3.6154931556       -2.9670232986
 H         0.5317734224       -1.4172166524       -1.0104607267
 H         0.9237216817       -1.7754106853       -2.7876808482
 H         3.0850572776       -4.1915452340        1.5611804388
 H         3.2270530090       -2.5589157311        1.1808071932
 H         0.5780670797       -5.2573623354       -1.8133438807
 H         1.3137299873       -4.2460193308       -3.0048592174
 H        -0.0599496054       -3.6271857033       -1.9715567114
 H         3.5992177547       -4.8730912658       -1.8688065069
 H         3.7218789600       -4.8242279875       -0.1573916782
 H         2.6425884340       -5.8873690617       -0.8963347077
 H         2.5957137121       -3.1665387923        3.5986172654
 H         1.1162222984       -3.6916944262        2.9325248060
 H         0.3806434337        0.6798327886        6.4351086939
 H         1.0449509436       -1.0259399686        6.1581595256
 H        -1.3440900795       -1.1450120370        2.1036369095
 H        -0.9234862698        0.4541154140        2.6992687795
 H        -1.8481235960       -0.5651006549        3.7183483704
 H        -0.7506255821       -1.8741801892        5.4881022953
 H        -0.7059408966       -2.9878519025        4.0807341807
 H         0.7058448437       -2.6517155184        5.1427679676
 H         2.4961766763        1.7210083741        6.0502041424
 H         2.7275425215        0.6100489164        7.4233072293
 H         6.8260050779        1.5191777354        3.6089108110
 H         5.6710926045        0.6524223876        2.8026908718
 H         4.4667201552        1.9909649973        7.3400448952
 H         6.2496732652        1.7449011372        6.9824500029
 H         5.3637267253        0.5212618088        7.7956785730
 H         5.6865726222       -0.9219930942        4.1762989352
 H         6.9099590147        0.1725379253        4.8567957839
 H         6.3416209974       -1.2859323056        5.8364282858
 H         6.5571147575        2.2082101169        1.3737145474
 H         6.4349884148        3.5343489662        2.5512522370
 H         1.4303473018        3.7971483765        1.7413610803
 H         1.6564211592        5.4480821670        2.0174573215
 H         4.7264174693        4.7879248363        3.3804748756
 H         3.1497093735        5.4055018968        3.0809559771
 H         4.6916923627        6.2764526560        2.6780130679
 H         5.9296325352        4.4647045384       -0.3202555442
 H         5.1908888309        5.9623021428       -0.3317287109
 H         6.1648715645        5.4189313463        1.0663039287
 H        -0.1380325054        5.8885856088        0.0312025674
 H         0.4720053392        4.4888765322       -0.7061077245
 H        -4.0780251699        3.0181565804       -1.1409177332
 H        -4.9966344771        3.8719874103        0.0290379333
 H        -4.7479661039        4.8014504831       -1.4799985283
 H        -3.6678726730        2.7702689347        1.1817292755
 H        -4.0507896030        4.0772924381        2.3901910581
 H        -2.5635868246        3.0282795441        2.4543241305
 H        -2.1082076186        6.6850114109        1.0091885055
 H        -3.3684347707        6.2622785355        1.9430052381
 H        -1.8186285224        6.0099206444        2.5638568541
 Na        1.1056526941        1.2440901377        1.3092812895
