155

 C        -9.5296753412       -4.4377272703        1.8980214588
 C        -9.0991273379       -3.0936752709        2.3950767901
 C        -7.9330715458       -2.4167457296        1.6511169884
 C        -6.7271817838       -3.4041672392        1.8279988549
 C        -6.0676992095       -3.6177785016        3.1353528677
 C        -8.2377951880       -2.2419596508        0.1891156581
 C        -7.5881197243       -0.9912176938        2.2236862819
 O        -9.7662030273       -2.4999346187        3.2012353025
 O        -6.3287363025       -4.0451594293        0.8462492717
 C        -4.7151589781       -4.4700057708        2.9117958848
 C        -3.5979112185       -3.5297125943        2.4095946533
 C        -2.1386099831       -3.9258126853        1.9924191209
 C        -1.9655991862       -3.9667086316        0.3719530831
 C        -3.1477642285       -3.4770327125       -0.5271050635
 O        -3.8796003014       -2.3156826329        2.3831549713
 O        -0.9848510146       -4.3725982892       -0.1411960328
 C        -1.1269208469       -2.9805981799        2.6453754026
 C        -1.8234885647       -5.4131642285        2.5079509033
 C        -2.5079243283       -3.3587833664       -2.0389602121
 C        -1.5987561529       -2.0770089091       -2.1743922397
 C        -0.3762974972       -2.0544653658       -3.2567980851
 C        -0.8187134709       -0.9341049816       -4.2978711616
 C        -1.0952695006       -1.2712089269       -5.7941776146
 C         0.8288312521       -1.5750830045       -2.2708729251
 C        -0.1519396886       -3.4746926539       -3.8259391552
 O        -1.8249418450       -1.1494303604       -1.5257866772
 O        -0.6412298520        0.2243338038       -3.9672544908
 C        -2.4028350601       -0.4287128258       -6.2305594653
 C        -3.6436944232       -0.7372332857       -5.3595485903
 C        -4.9602153459        0.0296770990       -5.3678623069
 C        -4.8521543683        1.3187420662       -4.5008450696
 C        -5.9415348970        1.6154861706       -3.3451192009
 O        -3.6144750133       -1.6485192501       -4.5330129442
 O        -4.0188065021        2.1225671092       -4.7174194903
 C        -5.2102736812        0.5096439536       -6.8549984554
 C        -6.1098270112       -0.9339882837       -4.9423385733
 C        -5.4476202554        2.7361158508       -2.4379842448
 C        -4.0483616327        2.5035135335       -1.7020659658
 C        -3.8709028095        3.4515206928       -0.2738111051
 C        -2.4883648766        3.1310261285        0.4825847167
 C        -1.6553070080        4.3076517459        1.0518381727
 C        -3.9775364228        4.9572380290       -0.7210048438
 C        -4.9738075013        2.9847703723        0.7510202607
 O        -3.2926254516        1.5995447285       -1.9504507592
 O        -2.2535653211        1.9187610896        0.6695642781
 C        -0.1991098254        3.9284588570        1.0910852125
 C         0.2461508323        3.5465019537       -0.2935272184
 C         1.7165463995        2.8887620783       -0.5114169087
 C         1.7141035665        1.3504432040        0.0898157687
 C         2.9773913360        0.7927884126        0.8646356371
 O        -0.3969496581        3.7430357613       -1.2961202592
 O         0.7251411173        0.6864852560       -0.1341759660
 C         1.8947882568        2.7998007089       -2.0434078638
 C         2.6520472780        3.8699977250        0.1529787982
 C         3.9942185579        0.7288988042       -0.3410202214
 C         5.1607920536       -0.2602295401        0.2188577489
 C         6.6211580430        0.1525063121       -0.2221453722
 C         7.2125532705        1.3649282556        0.7569209349
 C         7.8941269989        0.7171135023        1.9131825017
 C         7.4673866515       -1.2291639703       -0.2012091128
 C         6.6030148758        0.6002366760       -1.6427702452
 O         4.8040081757       -1.2179762067        0.9422615703
 O         6.9566514769        2.5278783609        0.6282376031
 C         8.4920462699        1.6877720777        2.8987814264
 C         9.5513733381        1.0875926386        3.7446141759
 C        10.0137513878        1.8286915007        5.0154408698
 C        10.2809482099        3.3595750460        4.8477260575
 C        10.2463738680        4.2949937449        5.9631751342
 O         9.9596586465       -0.0468062160        3.5431785122
 O        10.6039621648        3.7597300074        3.7269313099
 C         8.7860323194        1.7322673848        6.0051551811
 C        11.2409414773        1.1907832067        5.6158753456
 H        -9.4308016291       -4.4538029137        0.8142270927
 H        -8.8823488133       -5.1918057155        2.3303237714
 H       -10.5522117257       -4.7014096657        2.2188078068
 H        -6.0527829333       -2.6652746299        3.8064597711
 H        -6.7553109923       -4.2206738137        3.7497545253
 H        -7.3606326015       -1.9471377793       -0.4332191079
 H        -9.0663212894       -1.6000215903       -0.0177162969
 H        -8.5781834923       -3.2495074662       -0.2105325544
 H        -7.3656222844       -0.8957209543        3.2647173891
 H        -6.7639326466       -0.4624245795        1.6935392565
 H        -8.4703598176       -0.4152200537        2.0189352537
 H        -4.3565728028       -4.7666515438        3.8469990727
 H        -4.8145790827       -5.3846814460        2.3025256386
 H        -3.9543326447       -4.1814745512       -0.5384220445
 H        -3.6059740717       -2.5172654784       -0.1815872153
 H        -0.2695594541       -2.9430593350        1.9909509865
 H        -0.7578356623       -3.3434802752        3.6542683975
 H        -1.5899825743       -1.9426168779        2.7746766392
 H        -0.7467458574       -5.7344976416        2.4851718182
 H        -2.2412720398       -5.5123685754        3.5333194961
 H        -2.3003742669       -6.1368340929        1.8880581511
 H        -3.2212271945       -3.0776591905       -2.8176830095
 H        -2.0930330209       -4.2524413545       -2.3224101846
 H        -0.2121587322       -1.0618353578       -6.4085148612
 H        -1.2619129964       -2.3139280958       -5.8163446747
 H         1.6238604067       -1.4910078263       -2.9910836003
 H         0.9997152659       -2.3467227790       -1.4733901889
 H         0.6799633094       -0.6044427187       -1.8134607190
 H        -0.0983901088       -4.2091574914       -3.0377822288
 H        -1.0086356055       -3.8559571743       -4.3850648295
 H         0.7323072414       -3.4399951225       -4.4778101715
 H        -2.1878416860        0.5864432628       -6.1142228260
 H        -2.5781495460       -0.4695963700       -7.3429296759
 H        -6.7095055135        2.0830876813       -4.0189616124
 H        -6.2980176810        0.7779039404       -2.8200020801
 H        -4.2904785131        0.3778794062       -7.4188669728
 H        -5.5673781540        1.5409330698       -6.8735901815
 H        -5.9687857940       -0.1208781102       -7.3212497251
 H        -7.1030842433       -0.6311381356       -5.1993387952
 H        -5.9751632026       -1.9297453108       -5.4025049915
 H        -6.0613404787       -1.2079502007       -3.9079352763
 H        -6.2521666448        3.0431510504       -1.7683563157
 H        -5.2086323381        3.6465376009       -3.0912557416
 H        -1.8308458847        5.1079540427        0.3492469625
 H        -1.9926082912        4.5938247461        2.0284690215
 H        -3.2799456917        5.1133851320       -1.5479891201
 H        -3.8602385324        5.6286502828        0.0553265773
 H        -4.9283949768        5.1877659666       -1.2370092324
 H        -5.0822363009        3.5957704308        1.6302524296
 H        -6.0001117120        3.0279931792        0.2191883323
 H        -5.0060577006        1.8820185874        0.9257673921
 H         0.4191307183        4.7761178922        1.4652759137
 H        -0.0352286054        3.1181917616        1.8169070582
 H         3.2379311044        1.4705001790        1.6890098110
 H         2.6827154623       -0.1690114168        1.1564624847
 H         1.4863480836        3.6506886667       -2.5480012146
 H         1.3058300333        1.9416720426       -2.4145996582
 H         2.8994278709        2.6748476139       -2.3325428281
 H         3.7219388947        3.4283789613        0.3217749336
 H         2.7776845682        4.6858231501       -0.5586359899
 H         2.4098229758        4.0550444999        1.2503876514
 H         4.2865822282        1.8181960748       -0.6509291620
 H         3.5144470057        0.2000129197       -1.1218180952
 H         7.1664260952       -0.0150454644        2.3516257224
 H         8.7171830275        0.0561377134        1.5313358068
 H         7.1826574996       -1.8915398717        0.6710993885
 H         8.5262906824       -1.2388460246       -0.3495665817
 H         7.2040101770       -1.6790183538       -1.1266290652
 H         7.5757764912        0.8260801142       -2.0572232549
 H         6.1417148775       -0.2020376716       -2.2783144517
 H         6.0817508227        1.5689190523       -1.6798065916
 H         8.9099682526        2.4900635572        2.1866510092
 H         7.6773316122        2.0622841642        3.5764119764
 H         9.3170612014        4.8218162216        5.8352491380
 H        10.2497087176        3.8260132507        6.9394045975
 H        11.1562076242        4.8979116712        5.9223307830
 H         9.1500292609        1.9166944133        7.0174415480
 H         8.3266252836        0.7671059021        5.8893045492
 H         8.0442049851        2.4787655757        5.8308463002
 H        11.3971371103        1.2084368724        6.6877427258
 H        11.3061975794        0.1060246527        5.3277299857
 H        12.0646434078        1.7219815206        5.1799302474
 Na       -0.9313084526        1.0040242917       -1.5070904354
