155

 C        -5.1234968887       -8.4703184448       -5.1763433685
 C        -5.0969905392       -6.9840135637       -4.7301897696
 C        -6.1674780366       -5.9440851014       -5.2646301536
 C        -6.4893421708       -4.9333827403       -4.0898499994
 C        -5.4842909397       -3.7886905631       -3.9241275867
 C        -5.4878150222       -5.1850291038       -6.4836281248
 C        -7.5714082140       -6.6470967353       -5.5807042349
 O        -4.2193639455       -6.5482435359       -3.9865564311
 O        -7.5427620030       -4.9962583680       -3.4732517128
 C        -5.9146624418       -2.7894220840       -2.8920299687
 C        -5.7446395442       -1.3284656301       -3.3129248281
 C        -5.7997475975       -0.2035923950       -2.1410694131
 C        -4.3370667361        0.3645161439       -1.9572959662
 C        -3.4889032778        0.5821297699       -3.1412813407
 O        -5.3021872099       -1.0083715831       -4.4111933568
 O        -3.9203560104        0.6709059331       -0.8528642200
 C        -6.5716549281        0.9747588204       -2.7415266818
 C        -6.4171766649       -0.6801362913       -0.8713314388
 C        -2.0912555027        1.0495738464       -2.7680146921
 C        -1.0849562582        0.4359423207       -3.7160950956
 C         0.4871386606        0.9324323275       -3.7221814488
 C         1.0899582641        0.7419531494       -2.2888783438
 C         2.2328150577       -0.1597263975       -2.1132171917
 C         1.3346086392        0.1926486658       -4.8188849543
 C         0.3873013849        2.4480694505       -4.1784957621
 O        -1.2991886503       -0.3649737440       -4.6230521573
 O         0.4953009546        1.3414393701       -1.3758212662
 C         1.8431240053       -1.6776790079       -2.2210270447
 C         3.1160054761       -2.4872937562       -1.9220233185
 C         2.8254001172       -3.8908389860       -1.2147003192
 C         2.1030379281       -3.5814428475        0.1230363249
 C         2.9942841742       -3.0195681666        1.3581114841
 O         4.2858255645       -2.2741057628       -2.2984188162
 O         0.9303588568       -3.9074820035        0.2577294768
 C         1.8847334512       -4.8880016405       -1.9462887719
 C         4.2487598651       -4.6136134881       -0.9621892130
 C         2.0872968420       -2.6868758610        2.5745235201
 C         1.2902636096       -1.3967553439        2.3626918576
 C        -0.0008039495       -1.1993240592        3.3136584994
 C         0.3020931477        0.1690348339        4.0912031469
 C         0.3621600147        0.1916862761        5.6760397266
 C        -1.2203483746       -0.8308695407        2.4639323096
 C        -0.3335889462       -2.4052080599        4.2794112747
 O         1.6031985772       -0.6724990123        1.4466028249
 O         0.5048157060        1.2248619790        3.4877337786
 C         1.7077902593        0.5957363969        6.0465837333
 C         2.8412319881       -0.0307291655        5.3411332975
 C         4.2808127135        0.3970886768        5.7110202960
 C         4.9404279714        1.6662636680        5.0288833493
 C         5.2138768017        1.5901375304        3.5132949386
 O         2.7135537325       -0.9785718631        4.5982476015
 O         5.1895533122        2.6011512904        5.6942107303
 C         4.3963483593        0.5996674644        7.2716081024
 C         5.2943267404       -0.8695772646        5.2454411887
 C         5.0681242907        2.9600781647        2.8505595305
 C         3.6813625435        3.2627354660        2.2609206573
 C         3.4562821646        4.7464375454        2.0775844021
 C         2.2136896165        5.1892270655        1.2525900303
 C         0.7716216061        4.7657449378        1.6662182282
 C         3.1568198790        5.2052322005        3.5704342246
 C         4.7236629777        5.5465205878        1.6748212369
 O         2.8117472128        2.3859213204        2.0817543823
 O         2.4059737881        5.8872813709        0.2870680232
 C        -0.1634887732        4.7789984300        0.4733950930
 C        -1.3939405796        3.9338302417        0.7373286876
 C        -2.8215886869        4.7540709958        0.8027343924
 C        -3.5319273734        5.0584982135       -0.6982813982
 C        -4.4346603174        3.9197319898       -1.4838005010
 O        -1.4428703151        2.7161043901        0.6320493338
 O        -3.2916790647        6.0580393946       -1.2671468326
 C        -3.8390642266        3.8181059692        1.6098673751
 C        -2.7235832357        6.1051673107        1.4400282878
 H        -4.8684784626       -8.4576975629       -6.1996531587
 H        -4.4435224427       -8.9842683143       -4.4868566062
 H        -6.1834004363       -8.9013230623       -5.1547164121
 H        -4.5073415448       -4.1705786171       -3.7253759716
 H        -5.3483937204       -3.3257852044       -4.8941807156
 H        -6.1036613349       -4.3227683011       -6.7381213320
 H        -5.4297445295       -5.8353807047       -7.3799428231
 H        -4.4402674699       -4.9047991147       -6.2220691950
 H        -8.3206811692       -5.8944716490       -5.6465456959
 H        -7.5050947817       -7.2227951758       -6.5185405427
 H        -7.9758611944       -7.2795143405       -4.7484053292
 H        -6.9945098281       -2.9621004378       -2.5571891869
 H        -5.3364587273       -2.9284588667       -2.0494522852
 H        -3.3625578009       -0.2676026274       -3.8334440140
 H        -4.0586143666        1.2316320199       -3.7213518835
 H        -7.6230561102        0.8736052046       -2.5131550459
 H        -6.2992262100        1.0662109322       -3.7863928867
 H        -6.2133486126        1.8846355270       -2.2520840657
 H        -6.4762605935        0.0957706126       -0.1678784323
 H        -7.3567071326       -1.1126226285       -0.9716531831
 H        -5.7897336218       -1.3680934682       -0.3171502619
 H        -1.9241693177        0.8525092060       -1.6585539357
 H        -2.0814592296        2.1535359160       -2.7233381531
 H         3.0689483391        0.0656111748       -2.8121231801
 H         2.5949325898       -0.0216992733       -1.0888752775
 H         1.3909910234       -0.8730410646       -4.7642662007
 H         2.2749462798        0.7210998577       -4.7861333314
 H         1.0764634601        0.5140583338       -5.8903499821
 H         1.1098814485        2.9879340922       -3.4982500523
 H         0.4852605120        2.5607840248       -5.2840999139
 H        -0.5180903339        2.9414730571       -3.8812971281
 H         0.9392593622       -2.0297013883       -1.5223815949
 H         1.5302068572       -1.9692206728       -3.2051068498
 H         3.5732004518       -3.9254598254        1.6459970902
 H         3.6967830943       -2.2031568981        1.0565353470
 H         1.7965986315       -5.8687520942       -1.5385466769
 H         2.1070278114       -4.9307953922       -3.0320291897
 H         0.8826197557       -4.4447207040       -1.9755739285
 H         4.7730863537       -4.7520643967       -1.9337896293
 H         4.8023072463       -4.0086009439       -0.1834836089
 H         4.1449326250       -5.6309029929       -0.4877230938
 H         2.6748590445       -2.6925778239        3.5400529714
 H         1.4573268094       -3.5533435696        2.6497457135
 H        -0.3937121296        0.7437511494        6.1167609844
 H         0.0101950236       -0.8049233914        6.0943525156
 H        -1.5371338975       -1.7271123310        1.9002549809
 H        -1.0469477573        0.1262401932        1.9291724884
 H        -2.0822896621       -0.5481709282        3.1121245307
 H        -1.1075602159       -2.1233723163        4.9908349838
 H        -0.6726490932       -3.1223852717        3.5444422125
 H         0.6039671016       -2.7141158259        4.7936848595
 H         1.7905897023        1.7144956265        5.9026554768
 H         1.9990040837        0.4468390641        7.0401758406
 H         6.1890338708        1.1941870820        3.4020571466
 H         4.4895296553        0.8820405633        3.0696204137
 H         3.9239292373        1.5318732665        7.6534068720
 H         5.4453115934        0.6181032952        7.5433956705
 H         4.2054698317       -0.2152027371        7.8359267442
 H         5.1471180661       -1.1085117050        4.2392448634
 H         6.3116695130       -0.5429650886        5.1889631734
 H         5.0852188612       -1.6341394266        5.9367609642
 H         5.7981052273        3.0987978835        2.0257300202
 H         5.4563779028        3.6409161579        3.5558966942
 H         0.8517229772        3.7058229457        2.0893254710
 H         0.4463648945        5.4660067275        2.4112369471
 H         2.0944263356        5.2557609148        3.7763672738
 H         3.5850766020        6.2338949848        3.7812003448
 H         3.4269972761        4.4952857961        4.3625142523
 H         5.1024459523        5.3958808207        0.6049953099
 H         4.4296420007        6.6521457367        1.7690517711
 H         5.4910754537        5.1901195580        2.3206429383
 H        -0.4145010604        5.7767877126        0.2277063758
 H         0.3914031063        4.3440633113       -0.3580344189
 H        -4.1541887085        2.9443382174       -1.0879903009
 H        -5.4122567884        4.2539401905       -1.2639447061
 H        -4.1577737019        3.7973009282       -2.5050553950
 H        -3.5098749529        2.8092264957        1.4687402679
 H        -4.8790574186        4.0141225346        1.2297034346
 H        -3.8317665752        4.1208044736        2.6267204475
 H        -2.3557235703        6.9570019747        0.8698279081
 H        -3.5817800120        6.5444415351        1.8707139977
 H        -2.0084943685        6.0992627460        2.2925664118
 Na        0.8328749930        1.4854282734        0.9386502199
