155

 C        -5.2279901032       -8.8184652335       -5.3907522596
 C        -4.9838675101       -7.3344109015       -5.0953608286
 C        -6.1979292784       -6.3805295327       -4.9210225729
 C        -5.8897343022       -5.2092063619       -4.0091984840
 C        -4.6741525403       -4.3606471628       -4.3155882052
 C        -6.4790413121       -5.9360186061       -6.3666009362
 C        -7.4216623117       -7.0796861609       -4.2968306187
 O        -3.8677366235       -6.9533362520       -5.1738300504
 O        -6.5494097661       -4.9903448158       -2.9736520543
 C        -4.5691085126       -3.3209139044       -3.1328434094
 C        -5.0847644461       -1.9506778539       -3.5120075367
 C        -4.8358891649       -0.8338400472       -2.4141261630
 C        -3.3078972394       -0.5135243529       -2.3333871747
 C        -2.4874423004       -0.0701319234       -3.5427700438
 O        -5.6140691898       -1.7319428161       -4.5913008317
 O        -2.7423529541       -0.7381927953       -1.2261427350
 C        -5.6739792618        0.4205221013       -2.7835072001
 C        -5.3919621829       -1.2466703367       -0.9972590185
 C        -1.4182520667        1.0414179358       -3.3422326546
 C        -0.0225414763        0.6978970806       -3.8214397085
 C         1.1497815536        1.8128730355       -3.7283602808
 C         1.5581411194        1.5432476469       -2.2936114942
 C         2.6489280590        0.5087858811       -1.8954888114
 C         2.4061310975        1.4986751786       -4.6811820200
 C         0.6634143908        3.2099303202       -4.0734686575
 O         0.2999959169       -0.4153874647       -4.2175678544
 O         0.8603470172        2.0401811643       -1.4477146932
 C         2.1912559175       -1.0389357047       -1.9400254334
 C         3.3051059101       -1.9808875060       -1.4108832132
 C         3.0821548884       -3.4951402806       -1.5642461076
 C         1.9609636032       -3.7943230591       -0.3974579175
 C         2.3219741869       -3.1937782525        1.0543673177
 O         4.2996053881       -1.5722182573       -0.9228709706
 O         0.8383843116       -4.1889939012       -0.5913998625
 C         2.3021366938       -4.0499576734       -2.8318302360
 C         4.4299848818       -4.1386255465       -1.2461487104
 C         1.2289820006       -2.8047335173        2.0172715788
 C         0.6310921463       -1.4596218139        1.8330565367
 C        -0.6746919674       -1.0322293109        2.6431130687
 C        -0.1036377698       -0.0340321878        3.6532573850
 C        -0.3665052452       -0.2875277783        5.1292094351
 C        -1.5755524582       -0.3779324279        1.6158257430
 C        -1.3459862356       -2.1888393112        3.2763149041
 O         1.1098045184       -0.6606713385        1.0571246065
 O         0.5220644050        0.9638431397        3.3188844309
 C         0.7262418453        0.1870885583        6.0702056632
 C         2.0578746252       -0.4710574126        5.7123643224
 C         3.3851544296        0.4215876005        5.9555069006
 C         3.2929496213        1.6149563848        4.8286236125
 C         4.4425406256        1.7239874381        3.6361921035
 O         2.2060640227       -1.5665854423        5.1370844797
 O         2.3522624275        2.3168498047        4.7707667631
 C         3.3758081009        1.0813532858        7.3927841484
 C         4.6616206943       -0.3425877344        5.7680048938
 C         4.4675154236        3.2458485621        3.0878700270
 C         3.1986069150        3.7088591706        2.5738230059
 C         3.1326030347        5.3633665183        2.6981443259
 C         2.0036537987        5.6150098968        1.6141409525
 C         0.5523053395        5.3721394081        2.0876592921
 C         2.7803495991        5.8170510053        4.0881544183
 C         4.4715137554        6.1533902461        2.1600925315
 O         2.3490541118        3.1104745720        2.0617524097
 O         2.2966554515        5.8757921468        0.4793457935
 C        -0.3778057036        5.0145715538        0.8893585522
 C        -1.3826440277        4.0412012976        1.2899877029
 C        -2.8926477579        4.4089610407        1.2983788094
 C        -3.1680104076        4.7104751366       -0.1978882256
 C        -3.2512624626        3.5482469029       -1.2345605988
 O        -1.1416167942        2.8745788671        1.4988998637
 O        -3.0510853424        5.8745288682       -0.4954479623
 C        -3.6762246590        3.2070812723        1.7438653552
 C        -3.1394966288        5.6570654401        2.0140221885
 H        -6.1582011598       -8.9722298138       -6.0015955498
 H        -4.3819997013       -9.0740375467       -6.0172691570
 H        -5.2224562367       -9.3896477849       -4.5136790298
 H        -3.8452820463       -5.0481752097       -4.2934153593
 H        -4.7666268653       -3.8541099683       -5.2796428131
 H        -7.1929372302       -5.1635343290       -6.6323027061
 H        -6.9118634493       -6.7467673171       -6.9001931531
 H        -5.6017496785       -5.6437940010       -6.8748565099
 H        -8.2962805782       -6.4342183520       -4.4716455492
 H        -7.6381429534       -8.0931545422       -4.6945404411
 H        -7.3766295555       -7.0326815219       -3.2335359603
 H        -5.0781904284       -3.5978028585       -2.2936715405
 H        -3.4797190678       -3.2356439808       -2.8499589532
 H        -2.0230191637       -1.0401285203       -3.8996379980
 H        -3.1722243615        0.1162466701       -4.4198222148
 H        -6.7088558085        0.1662018129       -2.9405429853
 H        -5.2652159921        1.0655922968       -3.5744078648
 H        -5.7488691590        1.1328003488       -1.9771457456
 H        -5.4801250255       -0.3669621847       -0.3912798474
 H        -6.3295004564       -1.8224112804       -1.0210627508
 H        -4.6637162904       -1.8049250535       -0.4692970485
 H        -1.3190827727        1.1514495318       -2.2911024927
 H        -1.7797270691        1.9473097647       -3.6641600614
 H         3.6679719791        0.7511202305       -2.2727295892
 H         2.6500821919        0.8183297940       -0.8390550338
 H         2.9435047901        0.5480906611       -4.4863954446
 H         3.0160989887        2.4084191747       -4.7082141984
 H         2.0552187835        1.3668059494       -5.7268422822
 H        -0.1283646396        3.3655217898       -3.3562784414
 H         1.5119822400        3.8283219745       -4.0032524031
 H         0.2825646827        3.3438205673       -5.1344208842
 H         1.2005902042       -1.1926717503       -1.5948237612
 H         2.0399487286       -1.2087397308       -3.0813299977
 H         2.8894903598       -3.9527472971        1.5355619157
 H         3.0068483638       -2.3173822852        0.9995060619
 H         2.5698192762       -5.1244898465       -2.9600900444
 H         2.3682196225       -3.4479746439       -3.6955249179
 H         1.2197302400       -4.0712588400       -2.6421184930
 H         5.1604524912       -3.7451845604       -2.0110349191
 H         4.5743154125       -3.7346690177       -0.2207196224
 H         4.4558152657       -5.2506647674       -1.2060471447
 H         1.7352858702       -2.9035677208        3.0614826803
 H         0.4745806553       -3.5547873235        1.9882013210
 H        -1.1801568888        0.3967835773        5.2735241484
 H        -0.4880440152       -1.3538922421        5.2885389992
 H        -1.9415276890       -1.2093578211        0.9684687389
 H        -1.0292216369        0.3803857949        1.0110066770
 H        -2.4528402470        0.0017193224        2.1630733825
 H        -2.0115979297       -1.9342082085        4.1100104358
 H        -1.9817632198       -2.8124141145        2.5965086195
 H        -0.6122826865       -2.8834151334        3.7176370141
 H         0.8856637260        1.2805643959        5.8087455998
 H         0.4361718574        0.0580302179        7.1068791565
 H         5.4188151759        1.3776878579        3.8828216558
 H         4.0444099839        1.0314316138        2.8840766181
 H         2.5849266224        1.7796355103        7.5585068589
 H         4.2883060429        1.5547062839        7.6164961814
 H         3.3980998149        0.2781044345        8.2099666345
 H         4.7667289076       -0.9339258128        4.8923515597
 H         5.5222860263        0.3007644320        5.7028686698
 H         4.7275545058       -0.9697219995        6.6303055217
 H         5.1494548724        3.1522638127        2.1759422469
 H         4.8784421203        3.9221533398        3.8443653714
 H         0.6099814371        4.6317465519        2.8273856451
 H         0.3263372712        6.3708486935        2.5336037071
 H         2.8811594853        6.9317653863        4.1000306883
 H         3.5280282134        5.3229681904        4.7195448396
 H         1.7129052025        5.5439932724        4.3139904878
 H         4.2920149122        6.4127378813        1.1241106050
 H         4.4671329042        6.9904572684        2.7506799229
 H         5.3060878016        5.5231128159        2.1850203546
 H        -0.7056956053        5.9914111621        0.4705831532
 H         0.2292207002        4.5554873908        0.1099612717
 H        -3.2153574614        4.0428710298       -2.1771584802
 H        -2.3550470702        2.9607729794       -1.4454702969
 H        -4.0384559274        2.8271190541       -1.2378069402
 H        -4.6922763663        3.5075457738        1.8654071430
 H        -3.2787621302        2.8801796668        2.7103572221
 H        -3.5856915644        2.3587961476        1.0415511395
 H        -2.4633729966        6.4702751439        1.7457638155
 H        -4.1517620562        6.0866442517        1.8252643980
 H        -3.0731042776        5.5316981411        3.1038027578
 Na        0.8018985753        1.7125182748        0.7434515410
