155

 C        -9.6215337596       -4.3539739903        1.9317621231
 C        -9.2060540717       -2.9234404395        2.3426258012
 C        -7.8541044046       -2.3637810278        1.6819375362
 C        -6.7436718738       -3.4017891471        1.7823082970
 C        -6.0071350984       -3.7027777730        3.1359223156
 C        -8.1956789475       -2.1576968895        0.1628123905
 C        -7.3016353454       -1.0415527254        2.2499207929
 O        -9.9251370102       -2.3382685404        3.1257149255
 O        -6.4630429763       -4.1465554141        0.8839916851
 C        -4.6539410436       -4.2595024804        2.9569910129
 C        -3.5645927982       -3.3488007224        2.3664552527
 C        -2.1899601868       -3.9269924880        2.0152630720
 C        -1.9245391505       -3.9544165119        0.4125165377
 C        -2.9579992939       -3.4283809775       -0.5618855791
 O        -3.8349238762       -2.2145710611        2.2430248965
 O        -0.7930735054       -4.3604389667        0.1415037199
 C        -1.1362811668       -2.9044562537        2.6118621150
 C        -1.9655853550       -5.3846856741        2.4759619463
 C        -2.6451020531       -3.2759327754       -1.9793210085
 C        -1.8343628583       -2.0598028907       -2.3243697601
 C        -0.4390066206       -2.0986646438       -3.2716390110
 C        -0.8228050491       -0.9112389042       -4.2136503693
 C        -1.3989649763       -1.2451125174       -5.6680669301
 C         0.8421795621       -1.7483666247       -2.4767256983
 C        -0.2147319325       -3.4210267358       -4.0257241064
 O        -2.2201162407       -0.9821506233       -1.7325143517
 O        -0.7096431018        0.2683167232       -3.8321202241
 C        -2.5276256209       -0.2156062800       -5.8479532316
 C        -3.8173015037       -0.7464765963       -5.2271456127
 C        -5.1224616918        0.1398791934       -5.3579139746
 C        -4.7640488819        1.3344977257       -4.3542931517
 C        -5.7423295878        1.4636324661       -3.1300355529
 O        -3.8232727821       -1.7413253073       -4.5055610948
 O        -3.9115381223        2.2286425268       -4.6240243185
 C        -5.3884476533        0.7110015070       -6.7579622611
 C        -6.3397249831       -0.6707037734       -4.9316729338
 C        -5.2644323852        2.7173005380       -2.3085188737
 C        -3.9694885337        2.4512936801       -1.4327242488
 C        -3.8204816648        3.2724191006       -0.1723695888
 C        -2.4190622915        2.9971757244        0.5307513991
 C        -1.7361390702        4.2273685440        1.2105433230
 C        -4.0216761336        4.7681526269       -0.6222017442
 C        -4.9284704248        2.9179433817        0.8834016887
 O        -3.2982684991        1.5556300561       -1.8806652118
 O        -1.9535046764        1.9085154885        0.5854568098
 C        -0.1861963526        4.0546026956        1.1196930052
 C         0.1777067760        3.4352276304       -0.3609858728
 C         1.6546758094        2.7335205564       -0.5609463578
 C         1.5674451072        1.2098155659       -0.0169358334
 C         2.8720751446        0.6856858779        0.6137732326
 O        -0.6373288450        3.4828277043       -1.2792351989
 O         0.5921044305        0.5140914877       -0.3051452736
 C         1.9330297039        2.5477148140       -2.0413156678
 C         2.7020121902        3.5778456626        0.2080995097
 C         4.1325756396        0.6760783185       -0.2841800450
 C         5.2432733196       -0.3693787610        0.1096273728
 C         6.6910105044       -0.0747092568       -0.3791037954
 C         7.1247147061        1.0226187846        0.6462200267
 C         8.1678929562        0.7157366368        1.7623515797
 C         7.5043698403       -1.4258588713       -0.2600999597
 C         6.8723897496        0.5875635219       -1.8406572918
 O         5.0483660284       -1.1198513780        0.9902654295
 O         6.7714891516        2.1638416665        0.3867338234
 C         8.7795158674        1.9164774879        2.6652483745
 C         9.6912454988        1.2644447541        3.7455298619
 C        10.0041553351        2.0058594596        5.0776783615
 C        10.4307544112        3.4180004741        4.7803651177
 C        10.5047202970        4.4159405392        5.9851122643
 O         9.9120412064        0.0869301927        3.5798146305
 O        10.9176221795        3.8306895156        3.7442640081
 C         8.8091915299        1.7925404539        6.0296949293
 C        11.2872492626        1.3156163665        5.6632705824
 H        -9.5539577853       -4.4682784332        0.8523173427
 H        -9.0429751085       -5.1285975637        2.4476371331
 H       -10.6074202726       -4.4962987158        2.3612246464
 H        -5.8511272736       -2.8731148362        3.7272933125
 H        -6.6287044319       -4.3360221643        3.8243713561
 H        -7.2958037106       -1.9422257617       -0.4234534740
 H        -9.0267271930       -1.4136416615        0.0115013868
 H        -8.5340418502       -3.0546374890       -0.3006078443
 H        -6.3940180906       -1.2437655368        2.7836977354
 H        -7.1131875208       -0.3668429898        1.4553274103
 H        -7.9290943060       -0.5022622971        2.9978896792
 H        -4.2961988925       -4.5792082844        3.9998317150
 H        -4.5086387136       -5.0940232262        2.2637233250
 H        -3.9040865930       -4.0346433272       -0.4476548903
 H        -3.2889371774       -2.4608825037       -0.1492646541
 H        -0.0397255592       -3.1368464517        2.3174506022
 H        -1.2291404102       -2.8767687993        3.6997249242
 H        -1.4096777502       -1.9641455176        2.2554042974
 H        -1.0783305902       -5.7495226906        2.0110350281
 H        -1.7944712221       -5.4551878827        3.5486416373
 H        -2.7970539179       -6.0965566019        2.2008500769
 H        -3.5296006504       -3.2236394434       -2.6560209028
 H        -2.0465904963       -4.2314115530       -2.2868058383
 H        -0.6888483784       -1.0315044933       -6.4761456120
 H        -1.7201241322       -2.3188328794       -5.7733067395
 H         1.7549402716       -1.9938467234       -3.1217790869
 H         0.7347298281       -2.3910862334       -1.5962020572
 H         0.8966690807       -0.7515440361       -2.1581992303
 H         0.2344396487       -4.1672530122       -3.3244581375
 H        -1.1076629145       -3.8845797709       -4.3534083515
 H         0.5379584697       -3.2541383654       -4.7636317599
 H        -2.2129177981        0.8752117578       -5.5371216285
 H        -2.7136750916       -0.0402107788       -6.9177276273
 H        -6.7171696204        1.6260731429       -3.6030421584
 H        -5.6455765332        0.4960464776       -2.4995866926
 H        -4.4920400236        1.3554591370       -6.9764490110
 H        -6.2631150937        1.4161751668       -6.7225928219
 H        -5.5095995937       -0.0933160950       -7.5361415250
 H        -7.2692172139       -0.1180822075       -4.7340893508
 H        -6.6886579638       -1.4082819596       -5.6486638892
 H        -6.0351146173       -1.2497543687       -4.0435410031
 H        -6.0888993154        3.0271769422       -1.6325058210
 H        -5.1825827911        3.5104181456       -3.0425033302
 H        -2.0590206241        5.2036143202        0.7947138976
 H        -2.0847806805        4.1552875362        2.2518605410
 H        -3.3772406434        5.0609490503       -1.3889287211
 H        -4.1817685775        5.5605569662        0.1292362852
 H        -4.9334777084        4.7115299361       -1.2328967858
 H        -4.7801913328        3.3651988245        1.8816073236
 H        -5.8802509673        3.2930256986        0.6371211399
 H        -5.0749160517        1.8809537638        0.8472344911
 H         0.2854628781        4.9914640143        1.3893531722
 H         0.1857336060        3.3224239505        1.8627520857
 H         3.0195686980        1.2995755470        1.4970923187
 H         2.5809578848       -0.3647309864        0.9295628008
 H         1.9421154840        3.4918646529       -2.5201624715
 H         1.3418325330        1.8523762646       -2.6465171665
 H         2.9623415747        2.2198015604       -2.0679596764
 H         3.6561242374        3.4842361425       -0.1259987946
 H         2.5401644634        4.6318991013        0.0121287312
 H         2.7305908393        3.2864879613        1.2117327910
 H         4.5826112664        1.5951145311       -0.2477102585
 H         3.9668230883        0.4597326077       -1.3785795214
 H         7.8118337978       -0.0980033792        2.3735990667
 H         9.0007707945        0.2406846220        1.2593963003
 H         7.2727279332       -1.8924959708        0.6606039660
 H         8.5964855068       -1.2692730074       -0.3312429644
 H         7.2440119971       -2.1191557361       -1.1204296835
 H         7.7595123192        1.2201530032       -1.9270699913
 H         7.0500268490       -0.1646044945       -2.5706193834
 H         6.0014378016        1.2674984371       -1.9822675368
 H         9.3565717130        2.4796387374        1.9858902543
 H         8.0015742347        2.5581719782        3.0585541041
 H        10.1320780187        5.4247005436        5.6822501509
 H        10.0876154694        4.0277387021        6.9183104759
 H        11.5691076828        4.4346327356        6.2083614184
 H         9.1153668566        1.8749878643        7.0937728935
 H         8.2834460461        0.8526148227        5.7153022402
 H         8.0523139792        2.6305455684        5.8308866639
 H        11.3324072899        1.4914326763        6.7266374018
 H        11.1435721202        0.2660346456        5.6432263192
 H        12.2351640900        1.6684551857        5.2138324594
 Na       -1.2306929692        1.1727421843       -1.6545742956
