155

 C        -5.3226117529       -9.0876730915       -5.4098140235
 C        -5.0344488394       -7.6050124422       -5.2250222080
 C        -6.2775205209       -6.7070025943       -4.9262957106
 C        -5.8652601375       -5.5743588440       -3.8414993154
 C        -4.7887465868       -4.6057574103       -4.2396437295
 C        -6.7183782786       -6.0059281731       -6.2171862529
 C        -7.4756869447       -7.5587331692       -4.3418074115
 O        -3.9639908984       -7.0927022372       -5.5039315251
 O        -6.4884665320       -5.4623692553       -2.8128564375
 C        -4.3117620505       -3.5366423032       -3.2163448859
 C        -4.7995182533       -2.1653101971       -3.6648227388
 C        -4.5092695192       -0.9686138545       -2.6054289053
 C        -2.8884795082       -0.7025331586       -2.6614928063
 C        -2.3237695676       -0.0701786105       -3.9513914032
 O        -5.2562306537       -1.9127887315       -4.7445534305
 O        -2.1805593099       -0.6739580942       -1.6432305907
 C        -5.0248032566        0.3743588925       -3.0368327064
 C        -4.9302020981       -1.1817128355       -1.0987284112
 C        -1.4247078984        1.0870645393       -3.5632924153
 C         0.0425377914        0.8309638948       -3.9661192783
 C         1.2324341084        1.8162213331       -3.5391654398
 C         1.5617311155        1.6662064237       -1.9880203713
 C         2.7888379283        0.7678591896       -1.6510311800
 C         2.4101695383        1.5804784990       -4.4169371125
 C         0.6274061934        3.2828538920       -3.8126022247
 O         0.3466184903       -0.1619832087       -4.5155183429
 O         0.9808016606        2.1931250300       -1.0822684520
 C         2.2970028838       -0.6693372053       -1.8877316041
 C         3.5188062402       -1.6632167288       -1.3744110370
 C         3.0304663697       -3.1245219682       -1.3469636686
 C         1.8086974095       -3.2749444833       -0.2966311181
 C         2.1644078789       -3.3321188632        1.1594367001
 O         4.6129407554       -1.2987455523       -0.9634909349
 O         0.7053925419       -3.4927967310       -0.7438045531
 C         2.4236158564       -3.4383257793       -2.7066695469
 C         4.2368293046       -4.0597679638       -1.0591919165
 C         1.0687537468       -2.8986793020        2.0412863191
 C         0.5310745058       -1.5333583733        1.8004767682
 C        -0.9146024367       -1.1333388973        2.4266995931
 C        -0.5008120041       -0.3339693693        3.7110446759
 C        -0.5425672457       -0.8849224476        5.0907542648
 C        -1.7476974727       -0.2023995191        1.4873537201
 C        -1.6659992784       -2.4624219276        2.8377123793
 O         1.1787219139       -0.7220845451        1.1703356485
 O         0.1598310552        0.7091245860        3.5481285494
 C         0.4823252424       -0.1646613490        6.0395938839
 C         1.9177372005       -0.5452166951        5.5693020413
 C         3.1606373039        0.3662180721        5.9028685241
 C         3.1063705925        1.6717697737        5.0348323765
 C         4.1975412389        1.7667903266        3.9831913211
 O         2.0493703506       -1.5638378231        4.8879385740
 O         2.2546650149        2.4786447513        5.1969880543
 C         3.1613198293        0.9554762915        7.3207766536
 C         4.3759134846       -0.5660581455        5.7754137173
 C         4.3777361846        3.2956251105        3.6830548217
 C         3.4522264590        3.8126458386        2.4790383898
 C         3.2444391326        5.4235838017        2.4219171383
 C         1.9928205238        5.8308915852        1.5917479312
 C         0.6545498623        5.2562903432        2.1705049238
 C         3.0681955501        6.1195919111        3.8780913010
 C         4.5096448576        5.9933774564        1.6300972076
 O         3.0731503898        3.1550542135        1.5714279211
 O         2.0956517616        6.4066469804        0.5328183179
 C        -0.5481505091        5.3702445709        1.1423882424
 C        -1.4719350421        4.1208862762        1.4101077529
 C        -3.0296249784        4.3110921942        1.2471141263
 C        -3.3685903603        4.7059510734       -0.2283317362
 C        -3.7670723468        3.6991791902       -1.2571976258
 O        -1.0204096742        2.9597120398        1.3285755565
 O        -3.1623258478        5.8552533605       -0.5658832509
 C        -3.8771213238        3.0463552681        1.7268615284
 C        -3.4271756225        5.6118194570        2.1285888643
 H        -5.9911682756       -9.0277670969       -6.2838848555
 H        -4.3534208804       -9.5718276783       -5.5929434869
 H        -5.7973394838       -9.5940661019       -4.5595049065
 H        -3.9537015071       -5.1674402561       -4.6043196236
 H        -5.2079769363       -4.0507855571       -5.0794876044
 H        -7.6256207858       -5.4145112852       -6.3408769582
 H        -6.9663565143       -6.7298617430       -6.9502549130
 H        -5.9995722050       -5.2819688969       -6.6226435733
 H        -8.2170703152       -6.8392633636       -3.9352897649
 H        -7.8096308852       -8.2566175990       -5.0868727527
 H        -7.1478436264       -8.1103284751       -3.4512164613
 H        -4.5628700574       -3.7599781633       -2.2588997407
 H        -3.1716600515       -3.4131946206       -3.2892190773
 H        -1.7764906561       -0.7280841996       -4.6026632555
 H        -3.1998438232        0.1111057458       -4.6315730819
 H        -5.8559636413        0.7551986998       -2.4658015659
 H        -5.3794304763        0.3122079173       -4.0647873667
 H        -4.3349985317        1.2259976257       -2.9836668438
 H        -4.5232358888       -0.3005481712       -0.5368095658
 H        -6.0652087004       -1.1507853599       -1.0434741203
 H        -4.6320668239       -2.1633925559       -0.7284456855
 H        -1.3951837023        1.2272518695       -2.5079618175
 H        -1.8309421478        1.9636285784       -3.9735120209
 H         3.7462503719        0.9733186135       -2.1918766470
 H         2.9591121433        0.6603342357       -0.5578848668
 H         2.5544807455        0.4914808977       -4.3784606251
 H         3.2718690227        2.1045623366       -4.1180492226
 H         2.1232360927        1.5950935648       -5.5287206770
 H        -0.2347099639        3.4194462457       -3.1728192453
 H         1.3086491604        4.0426748383       -3.4690621485
 H         0.3703239658        3.3507299656       -4.9301962508
 H         1.3595067219       -0.8431195961       -1.4839799346
 H         2.1017347066       -0.9254835635       -2.9861911162
 H         2.4508272162       -4.3225168376        1.4846715920
 H         3.0466656086       -2.6408778326        1.3165623810
 H         2.8679276784       -2.8124281430       -3.5623960818
 H         1.3521548642       -3.4628714812       -2.6350950292
 H         2.6801440947       -4.4792467851       -2.9045140036
 H         4.7132750919       -4.0773331008       -2.0355767255
 H         4.9805659561       -3.7613409248       -0.3469919339
 H         3.8827459804       -5.0027234943       -0.7845301326
 H         1.5227562918       -2.9480663811        3.1107120261
 H         0.3252620278       -3.6682509198        2.1056961252
 H        -1.5744091836       -0.6633827273        5.4672059375
 H        -0.2611025888       -1.9445365834        5.0595021137
 H        -1.9817144741       -0.8806055530        0.7363594169
 H        -1.1526842946        0.6465922108        1.1631774599
 H        -2.5799327808        0.2313825738        1.9615208946
 H        -2.7009522711       -2.3829640720        3.2239886408
 H        -1.7063469646       -3.1584307118        2.0345168426
 H        -1.1780325814       -3.0403296690        3.6013611869
 H         0.4016997191        0.9415309934        6.0762876581
 H         0.3123409163       -0.4476188768        7.0783895210
 H         5.0289598203        1.2463824930        4.3726678509
 H         3.9764782695        1.3193461119        3.0351740706
 H         2.4624666387        1.8112167838        7.2633592574
 H         4.1269288919        1.2999140708        7.6196868869
 H         2.9232781917        0.2919893697        8.1689310304
 H         4.6150548334       -1.0599504888        4.8565183426
 H         5.2387902689        0.1058582487        5.8115202066
 H         4.3854634893       -1.2858145490        6.5762443605
 H         5.4101302468        3.5874484876        3.3861392412
 H         4.2017206324        3.9315567540        4.5706076941
 H         0.6780027497        4.2372133713        2.3948917844
 H         0.5251695704        5.8159731757        3.1362376266
 H         2.5750274345        7.1040043190        3.7960636762
 H         4.0323138888        6.4235517387        4.2379880107
 H         2.4061235340        5.4996708164        4.5126945429
 H         4.7962409423        5.0576860180        1.0825419025
 H         4.1473513296        6.7987197513        0.9735620075
 H         5.2763709625        6.3125694053        2.2566442962
 H        -1.0436647477        6.3478481627        1.0376908266
 H        -0.1183229953        5.1017662235        0.2074872181
 H        -3.3756069336        4.0214912521       -2.2344483714
 H        -3.3419646026        2.6932146258       -1.1417173954
 H        -4.8007476243        3.4187471992       -1.3984448768
 H        -4.8478066681        3.3068658461        2.0469447737
 H        -3.3832594649        2.5200842986        2.5962715632
 H        -3.9846835233        2.3803127476        0.8954223774
 H        -3.1156647666        6.4732624738        1.5151407222
 H        -4.5201319469        5.7361778819        2.4311645856
 H        -2.8621605120        5.6863382651        3.0437974714
 Na        1.1711987498        1.6793035131        1.5684879271
