155

 C        -5.2538722973       -9.5286838372       -5.4547424921
 C        -5.2240956205       -8.0043842024       -5.5684543340
 C        -6.2798325610       -7.1326248156       -4.7764640715
 C        -5.4289685695       -6.0274571070       -4.0168945465
 C        -5.1548741260       -4.6133673702       -4.6569741363
 C        -7.0946784188       -6.4573868028       -5.8778002249
 C        -7.2375818472       -7.8427141509       -3.7969415213
 O        -4.2533972510       -7.4375438814       -5.9955639108
 O        -5.0441639434       -6.2414629460       -2.8840480201
 C        -4.6131443430       -3.7399739226       -3.5502632997
 C        -3.6502150267       -2.5531141323       -3.9950466684
 C        -3.5429447283       -1.2706080663       -3.0676117164
 C        -1.9974599318       -0.9023742723       -3.1288199518
 C        -1.2870017521       -0.0738375070       -4.4093877030
 O        -2.9881132085       -2.5444389701       -5.0253006420
 O        -1.2718186397       -1.3127382466       -2.2648272617
 C        -4.4833273449       -0.1778167024       -3.7099530287
 C        -3.9316958617       -1.6521663539       -1.6664548040
 C        -0.8549815389        1.3230735956       -3.9710818190
 C         0.6809218199        1.6992162563       -4.1694950568
 C         1.1738413621        2.7093584803       -3.0547515020
 C         1.3657465980        1.8588510034       -1.7785141265
 C         2.6562174175        1.1836291698       -1.4338024441
 C         2.5795893257        3.1837058971       -3.6543846207
 C         0.2080682008        3.8327219352       -2.9525789213
 O         1.3617635931        1.2861716707       -5.1450853547
 O         0.5214001520        1.9725914681       -0.8846090426
 C         2.4227224548       -0.3867032597       -1.5396097916
 C         3.5947985808       -1.2719446365       -1.2144920879
 C         3.5244662847       -2.8264947650       -1.3973853464
 C         2.2399921883       -3.1666125882       -0.4656234750
 C         2.3697474930       -2.9618612479        1.0235769274
 O         4.3967923245       -0.8010294087       -0.4102212827
 O         1.2086671879       -3.4188039195       -1.0671556510
 C         3.0975636016       -3.3388475721       -2.9311201569
 C         4.8461546368       -3.4688152144       -0.9668607686
 C         1.0086905527       -2.8638773659        1.6844598145
 C         0.5154138993       -1.4512187970        1.8145674002
 C        -0.8490131335       -1.3253950999        2.4742936536
 C        -0.8492203218       -0.2394063338        3.5516486275
 C        -1.2179070493       -0.6771002719        5.0091020422
 C        -1.9214204729       -0.6254625510        1.4544733320
 C        -1.4597424558       -2.6833026421        2.8920705800
 O         1.1733205460       -0.5060120533        1.4940771333
 O        -0.4143549808        0.8694023314        3.3207370935
 C        -0.1775160100       -0.0428588152        5.9712665404
 C         1.2851396291       -0.3753699577        5.4589803759
 C         2.5995156964        0.1804227949        6.0823384072
 C         2.8047019318        1.6430071347        5.8454532591
 C         3.7445581632        2.1075531985        4.7246841546
 O         1.3559299688       -1.1123913424        4.5173944047
 O         2.3339882960        2.5202343881        6.6083389577
 C         2.4328060333       -0.2314774042        7.5194605109
 C         3.7663924741       -0.7095710216        5.6392234186
 C         3.3806223385        3.5118684788        4.2108497534
 C         3.0469852812        3.5520702004        2.7234141614
 C         3.1434850580        4.8337623933        1.9145635572
 C         1.6219968504        5.2805675460        1.4903488158
 C         0.4692066649        5.1234523686        2.5678964734
 C         4.0548614014        5.9360621905        2.5311892445
 C         3.8493569151        4.3775594242        0.6739503991
 O         2.3729339223        2.6881799657        2.2127064472
 O         1.3513842237        5.7840382868        0.4237124103
 C        -0.8560899781        5.6656062806        2.0826442073
 C        -1.7940792250        4.4647214055        1.6922211594
 C        -3.3796814668        4.6166161793        1.3346417035
 C        -3.5077367255        4.9626670217       -0.2498986236
 C        -4.6658770322        4.4181114994       -1.0781707439
 O        -1.3162452399        3.3534666316        1.6764313326
 O        -2.7956074949        5.8775528474       -0.5649158563
 C        -4.1523833171        3.2989083540        1.8852559368
 C        -4.0840843741        5.8341855311        2.0484976109
 H        -6.0873704277       -9.9760205155       -5.8696958285
 H        -4.4125329887       -9.7797389423       -6.0729105471
 H        -5.1348480326       -9.8163442890       -4.3999649498
 H        -4.5065448541       -4.7243858314       -5.5443774780
 H        -6.0977823259       -4.1799615356       -5.0603575616
 H        -7.7886478911       -5.7433928951       -5.5550568496
 H        -7.8079973257       -7.0367555468       -6.4016801137
 H        -6.5323707229       -5.9119435537       -6.5820595680
 H        -8.0752987724       -7.1760978993       -3.5536979305
 H        -7.5029726080       -8.7463121741       -4.2683772291
 H        -6.7572771078       -7.9080755181       -2.7930587778
 H        -5.4152899681       -3.3083415129       -2.9302261075
 H        -4.0234515482       -4.4547440041       -2.8089242895
 H        -0.4472942121       -0.6824410910       -4.6051654547
 H        -2.0047452311       -0.0100282699       -5.2696683550
 H        -5.4737576399       -0.3951927346       -3.9896627371
 H        -3.9132424699        0.2868998147       -4.4450086315
 H        -4.5710541477        0.6829926402       -2.9853193213
 H        -3.3966058725       -0.8759813166       -1.0975781382
 H        -4.9654443984       -1.5356353526       -1.4844095898
 H        -3.4495775769       -2.6096206638       -1.4621911583
 H        -1.0629310172        1.4226727193       -2.8816796823
 H        -1.4325073846        2.1937296076       -4.4869957358
 H         3.4203630889        1.4197737293       -2.1087199284
 H         2.9323392432        1.4632240149       -0.3795588982
 H         3.0809995934        2.5654142852       -4.4237288758
 H         3.2977678331        3.3816735115       -2.8122256462
 H         2.4428939832        4.0706945190       -4.1298624342
 H        -0.8280526324        3.4956606814       -2.8229767210
 H         0.4388652224        4.6817303450       -2.2386653446
 H         0.2222430002        4.3853826397       -3.8462476022
 H         1.6267755157       -0.6143815121       -0.8228986430
 H         2.0927083095       -0.5120070680       -2.5364323073
 H         2.9876200660       -3.7541305809        1.4587499022
 H         2.8850803741       -2.0324661289        1.2306344461
 H         2.2126174436       -3.9893528874       -2.8730806726
 H         3.9075493202       -3.9790864718       -3.3559844520
 H         2.7321659469       -2.5444260171       -3.5415746523
 H         5.6876715147       -3.1998833602       -1.6333793621
 H         5.0715366416       -3.2293485361        0.0992462937
 H         4.7631827286       -4.6028813226       -0.9130447568
 H         1.1710149849       -3.2064021905        2.6841474002
 H         0.3110828201       -3.5916042544        1.3119216278
 H        -2.2512603160       -0.3255928370        5.3204200516
 H        -1.2941594878       -1.7128883283        5.1476847300
 H        -1.9945901680       -1.0827258506        0.4586765131
 H        -1.5517536161        0.3722568190        1.3479207546
 H        -2.8340780640       -0.7300523755        2.0941617251
 H        -2.4286480214       -2.4304284849        3.4185781279
 H        -1.7088061903       -3.3084513641        2.0485211124
 H        -0.9241261376       -3.2710235308        3.6443687457
 H        -0.4043233622        1.0119145613        6.0983255598
 H        -0.2932640567       -0.4234870406        7.0289764199
 H         4.8246268981        2.1938667929        5.1158112128
 H         3.7686937968        1.3442682116        3.9189795163
 H         1.6414593904        0.4168568612        7.9904864802
 H         3.3458383884       -0.1793968822        8.1580375916
 H         2.0314471763       -1.1986182171        7.5179760686
 H         3.7861843242       -0.5317747000        4.5847152881
 H         4.7465379851       -0.4293353420        6.0139713162
 H         3.6243192589       -1.7487252095        5.8240168461
 H         4.1698183009        4.2177756596        4.3178278419
 H         2.5301930237        3.9167952271        4.7822611174
 H         0.2259207060        4.1502693479        2.9220946787
 H         0.7184168553        5.6835672868        3.5236555862
 H         3.5783182167        6.9134284372        2.3707138982
 H         5.1384516177        6.0258266620        2.3145834426
 H         4.1432299327        6.0222814663        3.6312758824
 H         3.3403488383        3.6024708389        0.2096853903
 H         4.0038345543        5.1396107511       -0.0584477928
 H         4.8138533288        3.9337114628        1.0469521065
 H        -1.4243072952        6.2765575163        2.7823952113
 H        -0.8316242266        6.2761739781        1.1477922700
 H        -4.8721727488        5.2579258299       -1.7503934031
 H        -4.5886561679        3.5407812945       -1.6788003660
 H        -5.6338530804        4.3233343664       -0.5854742446
 H        -3.4274144969        2.6051550529        2.3356443813
 H        -4.6465798766        2.8078040185        1.0705515060
 H        -4.8687820794        3.4750425227        2.6649790699
 H        -3.6938966092        6.8062656428        1.6715326604
 H        -5.1487922862        5.8005646882        1.8391440198
 H        -4.0467747430        5.6651811388        3.1240184528
 Na        0.4754185011        1.7683652492        1.4227448503
