155

 C        -3.6001704222       -8.8499620568       -6.1075804638
 C        -4.7255627036       -7.8713912701       -6.3183315665
 C        -5.5894551015       -7.5088320964       -5.0168674254
 C        -4.6732347554       -6.6486305949       -4.0361604728
 C        -3.8257954640       -5.4455249602       -4.7037446372
 C        -6.8696194361       -6.7233415305       -5.2610642833
 C        -6.0761783630       -8.7483857637       -4.1821813815
 O        -4.7909651032       -7.3035514197       -7.3709796565
 O        -4.5843616106       -6.8787411414       -2.8554161704
 C        -3.5376182916       -4.2569273971       -3.7422900879
 C        -2.5955871810       -3.2785890801       -4.3903438843
 C        -2.8726152367       -1.7525683355       -4.3694355801
 C        -1.5894469535       -1.1668824937       -3.6930306276
 C        -0.5003481600       -0.6331752362       -4.5596153473
 O        -1.6159955055       -3.6175225675       -5.0254885433
 O        -1.4145737275       -1.1229654044       -2.4976745694
 C        -2.9574663863       -1.3624758727       -5.8307399359
 C        -4.1492008257       -1.1747708461       -3.5736857214
 C        -0.7202920616        0.9334216844       -4.7696795202
 C         0.5130502666        1.7158209844       -4.3042831579
 C         0.3671490349        2.8714854281       -3.2110966094
 C         0.4597098209        2.1907606551       -1.7275385785
 C         1.8587436138        1.7447327645       -1.2735061559
 C         1.4935605331        3.9231336511       -3.4970843896
 C        -1.0352657761        3.4533291603       -3.2835224292
 O         1.6205705171        1.2579125714       -4.5077209784
 O        -0.5108615574        1.8677289001       -1.0637333078
 C         2.2463733102        0.3168639977       -1.7078301892
 C         3.6287311465       -0.2150781942       -1.1913938624
 C         3.8117845537       -1.7759119012       -1.1484770015
 C         2.6183289227       -2.2573398430       -0.2252017225
 C         2.9955748817       -2.4048858126        1.2332549729
 O         4.3939249672        0.6058945028       -0.7153983581
 O         1.5143483103       -2.5480373800       -0.5640162593
 C         3.7553299219       -2.2981493742       -2.6096677857
 C         5.2865368818       -1.9796130566       -0.5637014644
 C         1.7131178177       -2.2883521373        2.1354990449
 C         0.6883369519       -1.3167024613        1.6605018708
 C        -0.8153679552       -1.3860139181        2.1389216307
 C        -0.8082390533       -0.3284021532        3.3709561108
 C        -1.1656283458       -0.8158962834        4.7725710740
 C        -1.7894215552       -0.9691304335        0.9426805637
 C        -1.3266177148       -2.7833945309        2.5026074676
 O         1.1153274207       -0.2761925869        1.1031382932
 O        -0.6778188692        0.8754824116        3.1957497334
 C        -0.5608737640        0.0162185411        5.8839855867
 C         0.8350959519       -0.4298096377        6.2602907148
 C         1.7584637216        0.4215120175        7.1602492023
 C         2.4295149998        1.4162813894        6.0640410825
 C         3.3958954336        0.7407761821        4.9780986758
 O         1.2136810724       -1.5024370298        5.7892148745
 O         2.1910308054        2.6017465013        6.0585974658
 C         1.0221713168        1.4005448169        8.1573756268
 C         2.7909622484       -0.5299339012        7.7823169750
 C         3.9335960108        1.9234885377        4.1140713619
 C         2.8622731437        2.6133987485        3.1699825286
 C         2.6534313255        4.1368863567        3.0233237968
 C         1.3691533638        4.2570833609        2.0967087856
 C         0.0423182436        4.6449513004        2.7002265478
 C         2.4980419687        5.1800927314        4.2040280687
 C         3.9770946762        4.6167755157        2.4181295347
 O         2.1558433030        1.9754798909        2.3981130242
 O         1.4965520723        4.2734145551        0.8941186617
 C        -1.0366908992        5.1013835378        1.6640839390
 C        -2.2216697650        4.2044775097        1.3157112922
 C        -3.6371257084        4.8425247217        1.0711545384
 C        -3.6344208821        6.1312594799        0.1045123770
 C        -4.7114382206        7.1910423852        0.3590521264
 O        -2.1717885417        2.9569389864        1.4238669628
 O        -2.6764122833        6.2729824541       -0.6839444761
 C        -4.6781158622        3.7791330786        0.3687849975
 C        -4.1365538485        5.3346307957        2.4829936370
 H        -3.6473365809       -9.6575641424       -6.8254080424
 H        -2.5938924352       -8.4208468215       -6.2015620469
 H        -3.8309971915       -9.2875461623       -5.1477734259
 H        -2.8854233945       -6.0021907902       -5.0148443178
 H        -4.2926991180       -5.1707188596       -5.7044533448
 H        -7.4127243949       -6.5851542544       -4.3195440261
 H        -7.5697022673       -7.1996781220       -5.8960383678
 H        -6.7193113839       -5.6962166705       -5.6587630506
 H        -6.5115673921       -8.3209779828       -3.2787421265
 H        -6.8797300049       -9.3493320466       -4.6969020021
 H        -5.3720414807       -9.5353814509       -3.9089711661
 H        -4.4901383447       -3.6728987126       -3.4562666056
 H        -3.1175937906       -4.4970793365       -2.7928777398
 H         0.5242388857       -0.6922033730       -4.1265647235
 H        -0.5200514377       -1.1006593276       -5.5270156041
 H        -3.7613084032       -2.0211106276       -6.1908166945
 H        -2.1365435836       -1.7542417197       -6.4490120488
 H        -3.1711999888       -0.3569687567       -5.9150277311
 H        -4.1073593234       -0.0824227602       -3.4543455145
 H        -5.1403108929       -1.5205311443       -4.0126115151
 H        -4.1795289750       -1.5865154538       -2.5453465041
 H        -1.6940184434        1.2619903818       -4.2751701659
 H        -0.7106852622        1.1673686765       -5.8682096430
 H         2.6368745930        2.3455181874       -1.8582340988
 H         2.1484031981        2.0466209053       -0.3276378609
 H         1.9479202293        4.2499614814       -2.4953023875
 H         1.0380768419        4.8237322062       -3.9458653164
 H         2.2479983799        3.4175017861       -4.0974378091
 H        -1.6464801112        2.9901981994       -2.5334613377
 H        -1.0794629149        4.4206197512       -2.8808245318
 H        -1.5126747506        3.4391265708       -4.3058623382
 H         1.5884091566       -0.4978379616       -1.3497841815
 H         2.1074042296        0.2997035652       -2.7510167799
 H         3.4615805330       -3.3826913025        1.4773396843
 H         3.6814256132       -1.6568613222        1.5290421508
 H         3.8607657063       -3.3860014399       -2.7512359539
 H         4.5072627677       -1.7693560840       -3.1800739948
 H         2.7621087076       -2.0986781033       -3.1044818626
 H         6.0012412314       -1.5277746985       -1.2151265877
 H         5.3823297245       -1.3428916318        0.2800285264
 H         5.4982041531       -2.9217612318       -0.2332145304
 H         1.9657254186       -2.1157393518        3.1339135167
 H         1.2547174923       -3.3045801197        2.0347199434
 H        -2.2344133720       -0.9778284050        4.7693030234
 H        -0.8370926605       -1.8634610312        5.0762147479
 H        -1.3710786972       -1.3253341082       -0.0023240307
 H        -1.9338245174        0.0933621616        0.8209226591
 H        -2.7235457851       -1.4262880149        1.1223555077
 H        -2.3632959316       -2.7163306591        2.7416167441
 H        -1.1259649869       -3.5234382008        1.7038568132
 H        -0.8048845657       -3.1089242732        3.4143205509
 H        -0.6233818347        1.0315821186        5.6672639131
 H        -1.1869258267       -0.2729947967        6.8009046480
 H         4.2890321550        0.2641469755        5.4523050561
 H         2.8716172890        0.0681500810        4.2771428515
 H         0.1555383782        1.8475238996        7.6242326545
 H         1.7768057453        2.1193671106        8.3917933528
 H         0.8394122860        0.9305640985        9.1192501140
 H         3.5089041976       -1.0792718841        7.1721667552
 H         3.3112856817        0.0756280184        8.5050217779
 H         2.1474606332       -1.2554155413        8.3083396096
 H         4.6016254634        1.5488808648        3.3579356734
 H         4.5700643237        2.6335449724        4.6617177748
 H        -0.2391747490        3.6309198103        3.1466158600
 H         0.0565551619        5.2949300033        3.5655445841
 H         2.3217575670        6.2078797164        3.7554271208
 H         3.4742721042        5.2364571335        4.7274743185
 H         1.6160382151        4.8644573998        4.7904208371
 H         4.1455435247        4.3303522956        1.4346866943
 H         3.8622569198        5.6984989491        2.5247857008
 H         4.9048269227        4.4446842866        2.9266701748
 H        -1.4602062533        6.0422096809        1.9468773593
 H        -0.5625076919        5.2366220251        0.6782692944
 H        -4.2746670311        7.9968378096        0.9471697887
 H        -5.0231854644        7.6997003133       -0.5171173485
 H        -5.3817488885        6.8506739965        1.0809527635
 H        -5.2264201385        3.3616328126        1.1649836063
 H        -4.1405415343        2.9304256486       -0.1400598178
 H        -5.3564441149        4.2434023983       -0.2769955177
 H        -3.4079961815        6.0549460286        2.9171612985
 H        -5.1071282178        5.8707591751        2.4062247760
 H        -4.1566847288        4.4534991631        3.0688293399
 Na       -0.1010860745        2.0432395888        1.0740062663
