155

 C        -3.1856740589       -8.7503143906       -6.9349496077
 C        -4.6212370841       -8.4814705014       -6.5722287930
 C        -5.1878883772       -7.9820494511       -5.1085996516
 C        -4.2304579558       -6.9824958026       -4.3755060880
 C        -3.6794534884       -5.8009928656       -5.1448775756
 C        -6.6506362138       -7.3734141077       -5.1959906041
 C        -5.3105166815       -9.2966688705       -4.3067919758
 O        -5.4416190405       -8.4890494300       -7.4610447779
 O        -3.9020591465       -7.2011923783       -3.1701398845
 C        -3.9681437762       -4.3624556739       -4.6341095695
 C        -2.6342262556       -3.4182582153       -4.5492063639
 C        -2.9435867314       -1.8047906892       -4.6287603927
 C        -1.7772202782       -0.9905109239       -3.9402157874
 C        -0.4665247464       -0.6038225221       -4.7373248594
 O        -1.5133985049       -3.8717919116       -4.4859338448
 O        -1.9011682441       -0.6302887137       -2.7633480984
 C        -3.1382238290       -1.3109439477       -6.1085742521
 C        -4.2356275416       -1.4857335129       -3.7766773902
 C        -0.5790210927        0.9231326447       -5.1476824801
 C         0.5344434032        1.8062859736       -4.5945570078
 C         0.1825741659        2.9841053051       -3.4142941767
 C         0.8104365524        2.4943513962       -2.0784670148
 C         2.3026748592        2.2124498420       -1.8663094704
 C         0.9720336696        4.2297150056       -4.0547649494
 C        -1.3913161005        3.1958007881       -3.2352573003
 O         1.6651884649        1.7525694635       -4.8410441126
 O         0.0734013899        2.3946899142       -1.1312771136
 C         2.3913517111        0.7239079483       -1.5421033658
 C         3.5266612320        0.1135793744       -0.7489842660
 C         4.0407047015       -1.2242553202       -1.0651885408
 C         3.0085472125       -2.2679808589       -0.5249694790
 C         2.8940005644       -2.5220913608        0.9938385584
 O         4.0612738930        0.7594537304        0.1233899311
 O         2.4902055455       -3.0041527251       -1.3353410968
 C         4.2287112025       -1.4275465932       -2.5885827395
 C         5.3596578257       -1.6873616590       -0.3199534981
 C         1.4682782533       -2.8071072865        1.3480774165
 C         0.6170436839       -1.5980548158        1.6389858851
 C        -0.8979489679       -1.6647838365        2.3160027216
 C        -1.1597852858       -0.5993125290        3.3964899105
 C        -1.3890488435       -1.1493904172        4.8390937972
 C        -1.8226271343       -1.3133735617        0.9856816743
 C        -1.2513938195       -3.1201729339        2.5910724013
 O         1.0524089239       -0.4923868207        1.3259326464
 O        -1.1522518459        0.5804283744        3.1931430857
 C        -0.8661655138       -0.0996135740        5.8537689000
 C         0.6324501393       -0.3358902961        6.2009601957
 C         1.3037705008        0.4914961372        7.4022237294
 C         1.8795658820        1.6288933615        6.6402920287
 C         3.0824680874        1.3092999774        5.7521140343
 O         1.4518547114       -0.9429648620        5.5543753868
 O         1.2933795591        2.6629845720        6.5074799184
 C         0.3308125201        1.1747326629        8.4240071354
 C         2.3138032858       -0.4341205768        8.0610786219
 C         3.4534114486        2.4207380750        4.9032063820
 C         2.4155011359        2.7366495831        3.8586957787
 C         2.5713827886        4.3411799228        3.3414033734
 C         1.4395860553        4.5030558861        2.2885885123
 C         0.1060087913        5.2090978144        2.5756220627
 C         2.6302549623        5.3965151924        4.4556120551
 C         4.0771241105        4.2717902878        2.6628755627
 O         1.5910744524        1.9675820627        3.4301835830
 O         1.6935614367        4.0624320882        1.1636085021
 C        -0.6917763515        5.4085363725        1.3172139479
 C        -1.8799666234        4.4729895279        1.2470678896
 C        -3.3436046275        4.9415179841        1.2142898667
 C        -3.4239180526        6.3114468689        0.3851540279
 C        -4.5687785176        7.2849054833        0.7063443906
 O        -1.6952759506        3.3110810996        1.4866492142
 O        -2.8381065454        6.4104860746       -0.6395580381
 C        -4.2245551473        3.9946288306        0.3671088557
 C        -3.8823757210        5.0455304067        2.6596778662
 H        -3.3853264707       -9.2313738935       -7.8385230523
 H        -2.6008667954       -7.8289496154       -7.1549667378
 H        -2.5642367985       -9.3714869085       -6.2540309180
 H        -2.5723806303       -5.9472450290       -4.9774963509
 H        -3.9685692964       -5.8812202101       -6.1416877475
 H        -7.1894024080       -7.3546969875       -4.2115205357
 H        -7.2173135523       -7.9841550518       -5.9237594981
 H        -6.5999454722       -6.3194952553       -5.5995392304
 H        -5.4069969253       -9.1307480644       -3.2132027609
 H        -6.2266554689       -9.7642334524       -4.5612258945
 H        -4.4615174694       -9.9632696665       -4.3750312693
 H        -4.6891887037       -3.7767136639       -5.2797822578
 H        -4.3534326254       -4.3064513580       -3.6510772071
 H         0.3765186252       -0.7441775482       -4.1763449316
 H        -0.2574862122       -1.2303066629       -5.6024017101
 H        -4.1578277885       -1.4480081537       -6.5023206297
 H        -2.3543510623       -1.7095163291       -6.7147076485
 H        -2.9638756412       -0.2317187461       -6.1113287208
 H        -4.5212190556       -0.4383063157       -3.8149601938
 H        -5.1498344902       -1.9428777149       -4.0661369515
 H        -4.1144831559       -1.6883147893       -2.7274475473
 H        -1.5878044970        1.2903212711       -4.9789181900
 H        -0.5152180249        1.0868216830       -6.2844441378
 H         2.9533145843        2.4871493978       -2.7295989087
 H         2.5524890243        2.7091954623       -0.9586032527
 H         1.0693915515        4.0135978907       -5.1190008605
 H         1.9900351669        4.2906583020       -3.5991547292
 H         0.5669909877        5.2112068817       -4.0009586585
 H        -1.9001095305        2.2389218206       -3.0287272791
 H        -1.4796503870        3.9810896059       -2.4778441717
 H        -1.7910853211        3.6311291175       -4.1414029559
 H         1.4113787959        0.3568502643       -1.0544311421
 H         2.1788713518        0.2059339009       -2.4520586347
 H         3.5501397358       -3.3190053938        1.3872818866
 H         3.3060774657       -1.6412774843        1.5184293955
 H         4.3742838012       -2.5270536162       -2.7478299259
 H         5.0058362900       -0.9459349207       -3.1191462019
 H         3.3421526296       -1.1477639335       -3.1030503255
 H         6.2064648221       -1.1521678461       -0.7739054168
 H         5.1897404948       -1.4293629015        0.7591449003
 H         5.6610364523       -2.7656198477       -0.4600798942
 H         1.4495932442       -3.4991565629        2.1819044422
 H         0.9565863450       -3.3044603830        0.4620161025
 H        -2.4393135399       -1.3243492638        4.9296384217
 H        -0.9063414534       -2.1137219650        5.1127292878
 H        -1.3237258383       -1.7887211690        0.0976270588
 H        -1.9093889216       -0.2586301141        0.7198779182
 H        -2.8584306535       -1.7832640877        0.9795456934
 H        -2.3369601967       -3.2558503818        2.8869333064
 H        -1.0223076001       -3.6998842192        1.7290883720
 H        -0.6528057538       -3.4695328434        3.4623408985
 H        -0.9106833433        0.9149581715        5.4755748673
 H        -1.4596036958        0.0053628571        6.7788143291
 H         3.9825399590        1.1525776772        6.3799474539
 H         2.8632874835        0.3222683700        5.1565486532
 H        -0.2463241452        1.9676967240        7.8731478525
 H         0.9920150100        1.7418657442        9.0943511262
 H        -0.3136199173        0.4667714256        8.8536110881
 H         3.1852879920       -0.8502398977        7.6187030970
 H         2.5701402644        0.0914777739        8.9857806431
 H         1.7562499949       -1.2322505707        8.5291453694
 H         4.4220880293        2.2240254499        4.4051415214
 H         3.6559672000        3.2498626728        5.5966125133
 H        -0.4500697312        4.5117453810        3.2437313112
 H         0.2146298891        6.1762796478        2.9415347185
 H         2.5640167740        6.3200185460        3.9209653000
 H         3.5463247603        5.2233069637        4.9324278118
 H         1.8792248528        5.2215713871        5.1760856468
 H         4.1202455208        3.4618884310        1.9561382098
 H         4.1381929526        5.0764660314        1.9359241046
 H         4.9640670814        4.2086130157        3.3624750263
 H        -0.9223026436        6.4638379917        1.1469319753
 H        -0.1215130447        5.1686293595        0.3857226205
 H        -4.3224581750        7.9037741957        1.6248542531
 H        -4.5830157829        7.9942438516       -0.1664167499
 H        -5.6280140785        6.8738544999        0.8955327012
 H        -4.4133048486        4.4244621557       -0.6542534478
 H        -5.2217714417        3.9905953403        0.8364942119
 H        -3.8416041269        2.9932660920        0.2305473148
 H        -3.2308413122        5.6690071097        3.2941482525
 H        -4.9532319221        5.3509897961        2.6454381565
 H        -3.9198769334        4.0713108888        3.0251632454
 Na        0.1058852721        1.7498407219        1.2824449046
