155

 C        -2.6115844181       -8.6680716624       -6.8914009356
 C        -4.1852887275       -8.4314935152       -6.7134031088
 C        -4.6282692631       -8.0495074207       -5.2322558824
 C        -3.5051956970       -7.0870167406       -4.6380143584
 C        -3.2758527879       -5.7348980420       -5.4197509476
 C        -6.0556638689       -7.4016452669       -5.2517877901
 C        -4.7759261771       -9.2985078465       -4.3186107853
 O        -4.9273087580       -8.7012300934       -7.6199629586
 O        -3.0471678940       -7.2087219825       -3.5662535758
 C        -3.5294624173       -4.5166805253       -4.4924997333
 C        -2.7270060960       -3.2585270434       -5.0372808642
 C        -3.2946392240       -1.7893369001       -4.7135933357
 C        -2.2613327001       -1.0643706034       -3.8367194981
 C        -0.8987739248       -0.7841120395       -4.6030227718
 O        -1.6796405700       -3.4862240459       -5.5598317631
 O        -2.3666543447       -0.7241816516       -2.6924374994
 C        -3.4831553706       -0.9732924148       -6.0679832763
 C        -4.6424007046       -1.7881910147       -4.0453354903
 C        -0.8186536059        0.7275261246       -4.9557792172
 C         0.1758717342        1.5529709704       -4.1378279845
 C        -0.2600209570        2.7342021296       -3.1074417191
 C         0.4393694948        2.1946049205       -1.8215835770
 C         1.9704856866        2.1250598061       -1.5173569783
 C         0.4830332920        3.9480166454       -3.5839877260
 C        -1.7987158826        2.7243001670       -2.9847502588
 O         1.3791147574        1.2548332299       -4.2621386672
 O        -0.3003149107        1.6465316400       -0.9521593149
 C         2.5746405687        0.6755490082       -1.6980607278
 C         3.8239160506        0.4231679065       -0.7640503158
 C         4.4205431844       -1.1401064016       -0.8159102374
 C         3.4088214609       -2.1668466213       -0.3914138544
 C         3.1419044313       -2.3515154499        1.1297502006
 O         4.5136737580        1.2313793011       -0.2139666370
 O         2.9258143471       -2.8666060663       -1.2826429501
 C         4.9215546548       -1.5797844727       -2.2452172310
 C         5.5965819906       -1.1239970392        0.1865784026
 C         1.6565597085       -2.7101538860        1.4141536297
 C         0.7211258747       -1.4859133665        1.2809663231
 C        -0.8237436220       -1.5597759864        1.8201736246
 C        -0.9599342080       -0.6505244236        3.1904218522
 C        -1.6690039174       -1.1949402324        4.4253543668
 C        -1.7193209221       -0.6105034425        0.8654052497
 C        -1.5607984257       -2.8954865168        1.9767396837
 O         1.2376661174       -0.4743411703        0.7126807232
 O        -0.4403555414        0.4431646085        3.1356740009
 C        -1.4098669765       -0.3632210049        5.6755356268
 C         0.0491852934       -0.5938326340        6.1725869644
 C         0.5387954701        0.2399526697        7.3396562289
 C         0.9956691690        1.5824947198        6.6848621293
 C         2.4165052044        1.6992569965        6.1240315301
 O         0.6997303928       -1.5263297451        5.7097145250
 O         0.3575985849        2.6284836271        6.8583633607
 C        -0.5069956234        0.5379627602        8.3676339794
 C         1.7246167899       -0.5162579586        7.9632276308
 C         2.8060251801        3.0433586713        5.4271190753
 C         2.3466440222        3.2193259831        3.9330635736
 C         2.7501767959        4.5004515181        3.1395440043
 C         1.5937685649        4.8618411867        2.1522043616
 C         0.3388122281        5.6301808129        2.6222455742
 C         3.2303771478        5.7929245360        3.9571430597
 C         4.0070077012        4.1361741783        2.3667136045
 O         1.7978690308        2.2995369646        3.3836618426
 O         1.5154032900        4.1752682976        1.1214824119
 C        -0.7386788737        5.7037085608        1.5987716419
 C        -1.7021960804        4.5094103088        1.6202202714
 C        -3.2170844150        4.9251979094        1.3658939438
 C        -3.2674932076        6.1091509883        0.2626063881
 C        -4.5310918415        6.9126167952        0.2398407691
 O        -1.3724659740        3.3559837154        1.8587406301
 O        -2.3910810100        6.1751141161       -0.5713311540
 C        -4.0968965775        3.7218901422        1.0779274098
 C        -3.6466920652        5.5832953853        2.7697286997
 H        -2.3484631942       -9.6436145892       -7.4110580612
 H        -2.0519742766       -7.8702573150       -7.3653914936
 H        -2.2808987396       -8.8120567722       -5.8988212975
 H        -2.2368111275       -5.7673914121       -5.7669837366
 H        -3.8410699271       -5.5309553419       -6.2527187680
 H        -6.4885284836       -7.4334079139       -4.2620595029
 H        -6.6427993062       -8.0206332600       -5.9660134112
 H        -6.0502560410       -6.4088669249       -5.6155855655
 H        -5.0746055934       -8.8828077202       -3.3316309803
 H        -5.5433698765       -9.9353686349       -4.6811006170
 H        -3.9047670212       -9.9588423191       -4.2598914681
 H        -4.6241451039       -4.2731747246       -4.4886215218
 H        -3.0853303907       -4.7440513603       -3.5305134887
 H        -0.1427197523       -1.0834963893       -3.9194536415
 H        -0.9150110973       -1.3570783209       -5.5568786826
 H        -4.3979691861       -1.2003880335       -6.6212625617
 H        -2.7044561598       -1.2387695168       -6.7305554608
 H        -3.4541229906        0.1318871216       -5.8092009899
 H        -5.0535157215       -0.7552437977       -3.9075455429
 H        -5.4253422918       -2.3314906720       -4.5351595885
 H        -4.7557967582       -2.2396727334       -3.0444205409
 H        -1.7553506016        1.1407766794       -5.1007018020
 H        -0.3288548475        0.6800685519       -5.9356429886
 H         2.6105427016        2.7715785845       -2.1065544421
 H         1.9665578003        2.3766074235       -0.4430155063
 H         0.2453409771        4.3707950810       -4.5070803267
 H         1.5462980766        3.7754943338       -3.6288356619
 H         0.4176559268        4.7406434016       -2.8004206893
 H        -2.1869482056        1.7173054503       -2.8012600512
 H        -1.9891446846        3.3603554041       -2.0528241712
 H        -2.1804013459        3.1649629550       -3.8683312094
 H         1.6383450365        0.1035156180       -1.3709615499
 H         2.8428114547        0.4913930647       -2.7515147139
 H         3.6481676840       -3.2527368872        1.4188920798
 H         3.4895920633       -1.4626045196        1.6862293891
 H         4.9438645074       -2.6669691874       -2.2382974912
 H         5.8687905261       -1.0853336373       -2.5366173051
 H         4.2424417257       -1.4633422071       -3.0471309858
 H         6.3159034592       -0.4853113744       -0.1976153793
 H         5.3846436021       -0.7450975529        1.1375780710
 H         5.9127239956       -2.1366635788        0.3592804062
 H         1.5207854594       -3.3159922883        2.2994469881
 H         1.2522987842       -3.3192283738        0.5821524863
 H        -2.7535461569       -1.1857803734        4.2501252475
 H        -1.2706373859       -2.1913579667        4.6865075354
 H        -1.4779807676       -0.6279739568       -0.1570287300
 H        -1.7160042952        0.4261111337        1.1394023474
 H        -2.7803129981       -0.8170190346        0.8787603654
 H        -2.5034059114       -2.7707100684        2.5744200668
 H        -1.9037634532       -3.2643119327        1.0493412333
 H        -0.9813746601       -3.6521459133        2.4569881725
 H        -1.6144932132        0.7700087919        5.5341860528
 H        -2.0004312551       -0.7203681133        6.4994833096
 H         3.0440759027        1.5765337555        6.9515606856
 H         2.4955411521        0.7145013228        5.6439933159
 H        -1.1685333231        1.2915803520        8.0372360756
 H         0.0661558579        0.9368851922        9.2375497273
 H        -1.0294440679       -0.3412266289        8.7787379870
 H         2.4860070284       -0.9844804384        7.3188383969
 H         2.3552121107        0.1829493944        8.5582610737
 H         1.4040115188       -1.2934126146        8.6348606839
 H         3.9103727178        2.9490808494        5.5009997448
 H         2.5421751731        3.8370935479        6.1132567980
 H        -0.0928440820        5.0736739214        3.5367149276
 H         0.6588067122        6.5507303789        3.0248433544
 H         3.7085401384        6.4571221692        3.2356133356
 H         4.0404327148        5.5347959188        4.6350216596
 H         2.2806942613        6.1896524932        4.3295991524
 H         3.8744066134        3.1325498331        1.8256747282
 H         4.3112991080        4.8121339812        1.5912183849
 H         4.9257084728        4.1277274206        2.9493127046
 H        -1.3743935124        6.6022065913        1.6852038818
 H        -0.3121666808        5.6882855407        0.5941291171
 H        -4.4358998902        7.5479414370        1.0690146332
 H        -4.7636098102        7.5608861915       -0.5934533154
 H        -5.3822937247        6.2685671011        0.1414886577
 H        -3.4457168426        2.8156544533        1.0058428697
 H        -4.6408981935        3.7036817298        0.1988218935
 H        -4.8049129245        3.5621306752        1.8812608306
 H        -2.9454003853        6.2525346012        3.2921620225
 H        -4.5136400616        6.2120872208        2.6488291497
 H        -3.8730798307        4.8263290360        3.5630637141
 Na        0.3852284627        1.7055389237        1.3282364720
