155

 C        -2.4686443521       -8.8706550145       -6.7357569510
 C        -3.9595688024       -8.4425946112       -6.6962010394
 C        -4.5262801876       -8.0893253791       -5.2254949263
 C        -3.4200244775       -7.1354057882       -4.6528219296
 C        -3.1569451318       -5.7778345748       -5.3410545714
 C        -5.9346407025       -7.3481738107       -5.3795195113
 C        -4.5051219242       -9.3943499567       -4.4798809126
 O        -4.7588923752       -8.5841018450       -7.5984103976
 O        -2.8227818549       -7.5037941286       -3.5920032872
 C        -3.4918633652       -4.4507359190       -4.5194995312
 C        -2.9013816607       -3.2175376288       -5.1384776526
 C        -3.3741287066       -1.7620848471       -4.7268216318
 C        -2.3015912857       -1.0901838429       -3.8773161596
 C        -0.9155484643       -0.6923326332       -4.4720309100
 O        -2.1488449187       -3.2296245387       -6.1128244447
 O        -2.5757763638       -0.7517481377       -2.7176763394
 C        -3.5266947825       -1.0022862631       -6.0508550837
 C        -4.7355547623       -1.8222797686       -3.9589287028
 C        -0.7165759933        0.8175727532       -4.9505482932
 C         0.2740835217        1.5172861691       -4.1128451770
 C        -0.2377864553        2.5376189840       -2.9511947978
 C         0.4565784178        2.1698976981       -1.5904546694
 C         1.9652695247        2.1255591508       -1.4929115178
 C         0.1136710280        3.9226738058       -3.5530553835
 C        -1.7925850022        2.5371205709       -2.6876958622
 O         1.4120523749        1.3094585842       -4.3052121170
 O        -0.2192661774        1.8342880376       -0.6704568305
 C         2.7231384187        0.7186187300       -1.6851008098
 C         4.0056932199        0.5549158828       -0.7442609237
 C         4.5328018392       -1.0460781184       -0.6955069107
 C         3.3264287989       -2.2033073447       -0.2433567798
 C         3.0064104356       -2.4770168519        1.3545674893
 O         4.6221041718        1.4332500053       -0.1864280720
 O         2.8254721321       -2.8382869517       -1.1356993921
 C         4.9872730911       -1.3031104592       -2.1294639437
 C         5.7866761119       -1.2369402155        0.2163306170
 C         1.5112680567       -2.6430306022        1.6203505576
 C         0.6969851807       -1.4079115881        1.3086756700
 C        -0.8502696917       -1.3275782245        1.5876923245
 C        -0.9048851996       -0.4789517129        3.0044151930
 C        -1.6523848960       -1.1850684387        4.1517781840
 C        -1.6490595155       -0.6111164953        0.5981830515
 C        -1.3956414135       -2.7708648141        1.7660289166
 O         1.1989101817       -0.3893739279        0.9356314307
 O        -0.2399542542        0.5215761770        3.2132250128
 C        -1.4529953510       -0.4628860899        5.5533241472
 C         0.0062595584       -0.6382059531        6.0949849249
 C         0.3897614589        0.1178763907        7.4129359944
 C         0.7393861891        1.5846215707        6.7160714965
 C         2.1279565282        1.7857254956        6.0196986448
 O         0.7914964847       -1.4253923356        5.6230446687
 O        -0.0720683103        2.4398273552        6.6087034230
 C        -0.7096314242        0.3536344589        8.4629036147
 C         1.6369267979       -0.4609752548        8.0949024323
 C         2.5773154255        3.1136963539        5.4451910984
 C         2.4298884626        3.0853751789        3.9613210366
 C         2.8662937444        4.3596306858        3.0436358634
 C         1.6430790824        4.6255309619        2.0889077783
 C         0.6205473411        5.5920935004        2.6850649873
 C         3.1192150876        5.5287025144        3.9292185394
 C         3.9875741129        4.0135626711        2.0622183307
 O         1.7458897197        2.2351719183        3.3723526888
 O         1.4249498543        4.1248059824        1.0196045761
 C        -0.6285686770        5.7582224206        1.7788297448
 C        -1.6960399508        4.6045864803        1.7536698600
 C        -3.2172127905        5.0137429955        1.5110946741
 C        -3.2799064178        5.9490310452        0.1953067031
 C        -4.6497424125        6.6797169560        0.0506734104
 O        -1.3194259643        3.4476019645        1.8405203435
 O        -2.4112630848        5.9635759844       -0.6310844368
 C        -4.1008392235        3.6923514588        1.2030059048
 C        -3.6069486363        5.8250186034        2.7517807333
 H        -2.3707380796       -9.6436521321       -7.4049790052
 H        -1.8542196213       -8.0509098099       -7.1051711934
 H        -2.1104051138       -9.2535578992       -5.7516812030
 H        -2.1608151197       -5.7601714648       -5.7884900670
 H        -3.7980273315       -5.7148699763       -6.2699500254
 H        -6.3386400269       -7.2920188080       -4.3620911186
 H        -6.5393891619       -7.9257441340       -6.0307297880
 H        -5.7800888942       -6.3180136470       -5.8268256092
 H        -4.9303026842       -9.2695490910       -3.4890118350
 H        -5.0265367337      -10.2400982867       -5.0005141794
 H        -3.4688514895       -9.7341127675       -4.4710474998
 H        -4.5142699296       -4.2104537332       -4.5378038300
 H        -3.0851242240       -4.5051271000       -3.5191650559
 H        -0.2927016480       -0.9191083550       -3.6287304792
 H        -0.8151355556       -1.3297722583       -5.3272193505
 H        -4.4895442979       -1.2203397085       -6.5064317370
 H        -2.7435509514       -1.4041018728       -6.7446836989
 H        -3.3949736092        0.0192579773       -5.9604710347
 H        -5.1937590445       -0.9538504305       -3.5310407760
 H        -5.6332574300       -2.2720492483       -4.4375498307
 H        -4.6418309594       -2.5088584559       -3.1096563373
 H        -1.7279797490        1.3411762051       -4.9974282435
 H        -0.2439563269        0.7372498080       -5.9360832046
 H         2.5367335139        2.8523761716       -2.0799663677
 H         2.2091408671        2.2941296875       -0.4539285187
 H         0.0303352033        3.8883199084       -4.6625846139
 H         1.1962239195        4.1980513088       -3.5316720788
 H        -0.4856720899        4.7449454815       -3.2377035408
 H        -1.9871135316        1.7311740651       -2.0040781164
 H        -1.9853074940        3.3681636472       -2.1121733774
 H        -2.3636430147        2.4978193984       -3.6309221648
 H         1.9403925952        0.0758429140       -1.3723434790
 H         3.0848762888        0.5882884643       -2.7382980064
 H         3.3590760221       -3.5029653394        1.6414435264
 H         3.4304301232       -1.6590424450        1.9145237209
 H         5.1443281436       -2.3706346084       -2.4042348351
 H         5.8234802603       -0.6684963059       -2.3723753188
 H         4.1367339295       -1.0340629315       -2.8172660594
 H         6.5827136828       -0.5230517904       -0.1149801804
 H         5.5045653054       -0.8956221795        1.2435744898
 H         6.1500085879       -2.2685492369        0.3034797055
 H         1.3214321895       -2.9391303277        2.6935813915
 H         0.9834183508       -3.4421227318        1.0502617543
 H        -2.7008069030       -1.2126570871        3.8994540378
 H        -1.2953998668       -2.1796054785        4.3829124356
 H        -1.6213941700       -1.1124294695       -0.4039776010
 H        -1.3461494174        0.4086945441        0.3861276161
 H        -2.7198529283       -0.4997397271        0.7758868038
 H        -2.4525272716       -2.9161301655        1.8157582755
 H        -1.1827618219       -3.3456125362        0.8333242225
 H        -0.9487308909       -3.2851054322        2.6508613668
 H        -1.5978602410        0.5446026549        5.6021626157
 H        -2.1053499380       -0.9746668905        6.3069884223
 H         2.8646442646        1.4822592419        6.8666413144
 H         2.0874253145        0.8642286426        5.4205955911
 H        -1.5663439700        0.9268175775        7.9448673863
 H        -0.4667186136        0.9366546313        9.3233052431
 H        -1.0782383834       -0.5964021768        8.7743271462
 H         2.4446320737       -0.7505741328        7.4782224987
 H         2.1013189808        0.1424782184        8.8380333281
 H         1.3810158576       -1.3941278055        8.6250465518
 H         3.6326198942        3.1293319653        5.6672753904
 H         2.0975545464        3.9554934857        5.9992885728
 H         0.4617747793        5.1501632449        3.6079761503
 H         1.0676969314        6.6081527111        2.9970198569
 H         3.1723911827        6.4706924907        3.3566123424
 H         4.0992264305        5.2999983806        4.3458537621
 H         2.3174911194        5.5882459977        4.6329345712
 H         3.7132597960        3.1628752956        1.4907033636
 H         4.2940743088        4.8681837011        1.4011993087
 H         5.0076866005        3.7896977186        2.4206162041
 H        -1.1480867561        6.7220222104        1.8929379824
 H        -0.1735293318        5.7348285201        0.7556477862
 H        -4.6228268949        7.7885942610        0.2357787583
 H        -4.9265055471        6.5985499926       -0.9782436669
 H        -5.5543091392        6.1456770964        0.4253870781
 H        -3.6232053863        2.8029886931        1.5150436866
 H        -4.3917893089        3.5238489593        0.1169988094
 H        -5.0090982194        3.7600890211        1.7671601884
 H        -3.4489614181        6.8831487339        2.7391289460
 H        -4.5826742463        5.6218487321        3.2264771251
 H        -2.9335526074        5.5295577047        3.4821533502
 Na        0.5720539442        1.9733473813        1.4151483039
