155

 C        -2.2843738522       -9.0443578421       -6.8857433295
 C        -3.7502479753       -8.5761919181       -6.7219929470
 C        -4.3345728650       -8.1861436594       -5.2921046529
 C        -3.2261722769       -7.1140900842       -4.5692048493
 C        -2.9779336809       -5.7126638784       -5.2642569304
 C        -5.7613202243       -7.4254699965       -5.4640501242
 C        -4.5369887280       -9.4445058611       -4.3509355682
 O        -4.4780372943       -8.3484790967       -7.6649373260
 O        -2.6157943574       -7.3961702696       -3.6148655576
 C        -3.3886059569       -4.4404264928       -4.4990666395
 C        -3.0613177702       -3.1438699071       -5.3932204298
 C        -3.5409329880       -1.7276837365       -4.8252289460
 C        -2.3896629418       -1.1971234684       -3.9314030837
 C        -0.9307291001       -0.8877480263       -4.4985905597
 O        -2.4036127470       -3.3827288690       -6.3709320069
 O        -2.6190023728       -0.8301020862       -2.8144958723
 C        -3.8919468237       -0.7254806778       -5.9846965697
 C        -4.8274496800       -1.8501141495       -3.9283265740
 C        -0.7778049433        0.6350616408       -4.8734932671
 C         0.2730199781        1.4682671088       -4.0172680796
 C        -0.1673082429        2.3470024348       -2.9245935315
 C         0.6553019897        2.2556772977       -1.6110029603
 C         2.1217785647        2.1894860339       -1.5682941227
 C         0.0720984846        3.8139725617       -3.2929543769
 C        -1.6468058060        2.1913154502       -2.5777283046
 O         1.4891657315        1.3782418408       -4.2867568811
 O         0.0892616261        2.2291396613       -0.4832150767
 C         2.5352653178        0.6428592507       -1.5285493248
 C         3.8669087596        0.4508778685       -0.6875753145
 C         4.4287834111       -1.0213040764       -0.5862339046
 C         3.3225890689       -1.9934108151       -0.2018148388
 C         3.1242677355       -2.0973669580        1.3583963630
 O         4.4352628742        1.3667195483       -0.0825740810
 O         2.6190381516       -2.5347903635       -1.0155953479
 C         4.8920690193       -1.4127665534       -2.0657310181
 C         5.6186295416       -0.9979333797        0.4296083302
 C         1.6267474742       -2.5026413838        1.4173966109
 C         0.7729925675       -1.2381458336        1.2522602311
 C        -0.6830242370       -1.3020319789        1.5672505446
 C        -0.8711750654       -0.6140757715        2.9774554723
 C        -1.6550525723       -1.2912022405        4.1584029824
 C        -1.4935035926       -0.5904577683        0.4966661072
 C        -1.2200654607       -2.7655375232        1.6329718286
 O         1.2908942894       -0.1195523130        1.0710315707
 O        -0.5960183563        0.5397105396        3.1177699886
 C        -1.4611469028       -0.4988886288        5.4371413780
 C        -0.0328952102       -0.6690421238        6.0486228081
 C         0.2778212898        0.1561499625        7.3193180214
 C         0.6352582645        1.5289659766        6.6652212491
 C         2.0030598846        1.7702782492        6.1552924542
 O         0.7825091366       -1.3389994577        5.4680487951
 O        -0.1727910179        2.3484658070        6.3179673529
 C        -0.9965069021        0.2466226173        8.2761829001
 C         1.5477418286       -0.3549788543        8.1328529350
 C         2.1657856291        3.1189087243        5.4040274610
 C         2.3421717283        2.9439506710        3.8800674017
 C         2.8075686644        4.2026714136        3.1007823656
 C         1.6013504062        4.6789315516        2.1406137437
 C         0.5536168982        5.6413710973        2.6632780922
 C         3.4225578623        5.4547602964        3.9187988602
 C         3.8935591728        3.6625640765        2.2109035676
 O         2.1006523594        1.8822241085        3.3613345591
 O         1.5357590438        4.2592884409        0.9967138492
 C        -0.6356250956        5.8785892924        1.6820981772
 C        -1.6691964553        4.7181410421        1.7328382820
 C        -3.2180772948        5.0677912101        1.5736547094
 C        -3.3471834322        5.8492916489        0.1817230505
 C        -4.6627802906        6.3974376366       -0.1590323336
 O        -1.3166967100        3.5846087015        1.8211151468
 O        -2.4215592376        5.7480099835       -0.6554231965
 C        -4.0096712021        3.7113086353        1.5201803264
 C        -3.6714592423        5.9135825271        2.7473149002
 H        -2.2661919233       -9.7245865662       -7.8115907540
 H        -1.7233692526       -8.1667902988       -7.2121132179
 H        -1.8697934211       -9.5528214625       -6.0344872953
 H        -1.8928176349       -5.6610191398       -5.5187146825
 H        -3.4488710453       -5.6561322659       -6.2505419935
 H        -6.0843674291       -7.1589749396       -4.4273146264
 H        -6.4605157616       -8.1971400704       -5.9485220279
 H        -5.6850434163       -6.5671647609       -6.1183864799
 H        -5.0540814924       -9.1150508259       -3.4649353216
 H        -5.1161728775      -10.2241626390       -4.7953611325
 H        -3.5759657732       -9.8634415139       -4.1081673954
 H        -4.5235719639       -4.4574389550       -4.3482993102
 H        -2.8499410425       -4.3916774113       -3.5234930774
 H        -0.1879887940       -1.1842597899       -3.6903323503
 H        -0.8677264875       -1.4628456726       -5.4515116967
 H        -4.4445966457       -1.2698245190       -6.7327858134
 H        -2.9992930484       -0.2631667212       -6.3759158710
 H        -4.5435589138        0.1407428470       -5.6307927921
 H        -5.2533343423       -0.9098086459       -3.6851783922
 H        -5.6740658318       -2.1773272471       -4.4844435001
 H        -4.7692548387       -2.3579542534       -2.9960067463
 H        -1.7394684598        1.1020768685       -4.8733223446
 H        -0.3383477111        0.6171299841       -5.8857557372
 H         2.7041982807        2.5350273247       -2.4128290071
 H         2.6981362185        2.6074697216       -0.6979639854
 H        -0.5925263292        4.3115830848       -4.0449709264
 H         1.0109181612        3.9316595130       -3.7904221313
 H        -0.0356971586        4.4641075193       -2.3938934805
 H        -1.8803354947        1.1127200397       -2.5851351972
 H        -1.8596576733        2.4497845468       -1.4956631943
 H        -2.1592099712        2.7669780444       -3.3408731137
 H         1.7329940694        0.1617508339       -0.9419181551
 H         2.6831316360        0.4221735432       -2.5702012333
 H         3.6979689984       -2.9060358764        1.7220304909
 H         3.3503614577       -1.1275046953        1.8517275958
 H         5.8349176893       -1.9581075967       -2.1167229276
 H         5.1240293703       -0.4422276006       -2.5877823051
 H         4.0955476655       -1.9349457100       -2.5966231011
 H         6.2244434966       -0.1029825069        0.2010536031
 H         5.2437410454       -0.9112696835        1.4549698783
 H         6.2195144078       -1.9245991838        0.3546877501
 H         1.2153003065       -2.9962352800        2.2750784038
 H         1.4242684043       -3.1738480130        0.6058483583
 H        -2.7676212091       -1.3732347630        4.0277093834
 H        -1.2527981864       -2.3084995368        4.3451434721
 H        -1.7017659180       -1.0891437250       -0.4333822197
 H        -1.1306126912        0.4151657702        0.1985488702
 H        -2.4713700984       -0.3324337854        0.9230149274
 H        -2.3131473665       -2.6635855559        1.7204632593
 H        -1.1227154391       -3.3345271633        0.7181830796
 H        -0.9437948313       -3.3573542345        2.4775554338
 H        -1.5322746969        0.6649222373        5.2176152935
 H        -2.2249497783       -0.8022318532        6.1319054055
 H         2.5965744645        1.5692460472        6.9997306516
 H         2.2345797295        1.0406192551        5.3931666445
 H        -1.8315354892        0.7832217678        7.9570468972
 H        -0.7060143541        0.7838075063        9.2014978118
 H        -1.2757457378       -0.8123758106        8.5578507964
 H         2.3810637624       -0.5990083273        7.4234042752
 H         1.9890998086        0.2502239276        8.9306001771
 H         1.4633998965       -1.3195922452        8.5785713684
 H         3.0548332632        3.6495386257        5.7987830237
 H         1.3051905206        3.7747428317        5.4754149590
 H         0.2558757923        5.2369137357        3.7169391014
 H         0.9552733690        6.5897388476        2.9311745450
 H         3.5481786546        6.1482974233        3.0781023872
 H         4.3649922015        5.1208693575        4.4320896862
 H         2.7163157307        5.9368140124        4.6594477183
 H         3.7335385221        2.9044150109        1.4517210658
 H         4.4413357156        4.5010951445        1.8941798568
 H         4.6600575968        3.1914225508        2.7662366518
 H        -1.0984553362        6.7643993876        2.0977091294
 H        -0.3597629774        6.0448569183        0.6566878025
 H        -4.6407674825        7.4360594386       -0.4816503990
 H        -5.1940600000        5.8232301393       -1.0003843714
 H        -5.3605190716        6.2774508395        0.6831856596
 H        -3.9756100365        3.3222078186        2.5889280727
 H        -3.5129881207        2.9849178673        0.9167693049
 H        -5.1037305394        3.7270486330        1.2662896938
 H        -3.9269203254        6.9036277030        2.3397343532
 H        -4.4922951349        5.5226696718        3.3363372374
 H        -2.9395552842        6.1924211998        3.5991466122
 Na        0.6265681740        2.0196464956        1.6543322212
