155

 C        -1.6288459458       -9.9673826282       -6.9495032971
 C        -1.8171707835       -8.4238281238       -6.6861949249
 C        -2.7188235079       -7.9482399216       -5.4621085809
 C        -2.2247433862       -6.5286016062       -5.0621229875
 C        -2.6798876594       -5.3080065261       -5.8429212293
 C        -4.2307150180       -7.8981070061       -6.0235954953
 C        -2.5539073376       -8.8412477120       -4.2510802057
 O        -1.4233578167       -7.6411061031       -7.4878452680
 O        -1.6244974053       -6.3330578681       -4.0170082482
 C        -2.6353656506       -4.0082181817       -5.0198562594
 C        -3.5304935943       -2.8206386928       -5.7185134218
 C        -3.9401521213       -1.5891587291       -4.8421889325
 C        -2.6981521731       -0.7565587744       -4.4843597621
 C        -1.5730723725       -0.5874744402       -5.5305010116
 O        -3.9537338984       -2.8631328522       -6.8446651616
 O        -2.5876791566       -0.3661687091       -3.3285872249
 C        -4.8544081677       -0.6618105574       -5.7337006489
 C        -4.6269180548       -2.1282597705       -3.4890404644
 C        -0.7843922243        0.7815661517       -5.2544322647
 C        -0.1748881098        0.8806085096       -3.8171844788
 C        -0.3941661448        2.2097839690       -3.1637491880
 C         0.2321959265        2.1027413090       -1.6729244728
 C         1.7118809441        2.1540576918       -1.3836011966
 C         0.3126529594        3.3511740904       -3.9957936572
 C        -1.9137787073        2.5832536398       -3.0100620731
 O         0.6010037941        0.0915209235       -3.3623680718
 O        -0.5170753707        1.7100493504       -0.8017988165
 C         2.3479655590        0.8240263313       -1.4991319747
 C         3.7462135140        0.7139708366       -0.6212228072
 C         4.7212312207       -0.5416801338       -0.7010251472
 C         3.8992953352       -1.6313665116        0.0331629025
 C         3.7596621435       -1.6207535577        1.5172928622
 O         4.0417476099        1.5637126377        0.1800416548
 O         3.1679914909       -2.3853026490       -0.5706776608
 C         4.9261353127       -0.9825117754       -2.1716942817
 C         5.9765347406       -0.1745547388        0.0595634572
 C         2.3670986354       -2.2513472192        1.9152993118
 C         1.2084229902       -1.3518059051        1.9459996754
 C        -0.3030379120       -1.8420573527        1.8474666966
 C        -1.3412837950       -0.7830383363        2.3996843444
 C        -2.4180415626       -1.2171211305        3.6642371841
 C        -0.6068333542       -1.8992552547        0.3182343268
 C        -0.4688486397       -3.1930567069        2.5205065091
 O         1.4427529372       -0.1458860696        1.9556230181
 O        -1.5672133893        0.2882133045        1.9501806685
 C        -2.3860495662       -0.2774701303        4.8733536112
 C        -1.0919843309       -0.4236841183        5.6383103201
 C        -0.9421374554        0.0944110800        7.0455744429
 C        -0.0429930042        1.4529181599        7.0066364393
 C         1.3677218977        1.4397348658        6.3673631920
 O        -0.1019509816       -0.8919204066        5.0667984553
 O        -0.5178160501        2.4033673282        7.5842241248
 C        -2.3915982194        0.2602935087        7.7003604254
 C        -0.1498824222       -0.9650959774        7.9570435978
 C         1.7198940096        2.8414352409        5.8606900438
 C         1.7851877249        3.0222117475        4.3132633149
 C         2.4917864080        4.1659731997        3.6285517275
 C         1.7185029831        4.6621993431        2.3674882870
 C         0.7654531136        5.7886967275        2.4415032334
 C         2.6843388762        5.3482810579        4.6892703543
 C         3.8913102735        3.7505123839        3.3075737438
 O         1.2106387817        2.1451233254        3.6694290217
 O         1.9537032900        4.1332875726        1.2632193531
 C        -0.2341421021        5.8615485267        1.2499084537
 C        -1.4717738455        4.8751814377        1.7674472419
 C        -2.9803125193        5.3060598279        1.6587849548
 C        -3.2169753265        4.5340545025        0.3054134395
 C        -4.4983911597        3.7439661932        0.2006413898
 O        -1.1887256171        3.8634339929        2.3580180565
 O        -2.5381301972        4.8217645958       -0.6627424344
 C        -3.7271608069        4.8725177150        2.9240105056
 C        -3.2158409131        6.7288562057        1.4193319628
 H        -1.0972566017      -10.1627917279       -7.8649842092
 H        -1.0859500923      -10.4404972359       -6.1496758380
 H        -2.6550630005      -10.3086379926       -7.0067356803
 H        -2.0393065638       -5.3428864082       -6.7707256041
 H        -3.7085340969       -5.5062772578       -6.2033802122
 H        -4.8281599652       -7.5355978123       -5.2697398274
 H        -4.4021330213       -8.9357109764       -6.1752958301
 H        -4.2532116437       -7.3266826941       -6.8945319876
 H        -3.1407653380       -8.4081013984       -3.4258617823
 H        -2.9795862890       -9.8090042217       -4.4014926313
 H        -1.5398284982       -8.8996493783       -3.8787590955
 H        -3.0985846360       -4.2523545933       -3.9856772363
 H        -1.6247442647       -3.7350176449       -4.8988920479
 H        -0.7734135844       -1.4198705051       -5.5635933427
 H        -2.1683142521       -0.5105588337       -6.4977946389
 H        -5.4811976949       -1.3493897670       -6.2602233132
 H        -4.2068756097       -0.0844573368       -6.3530747933
 H        -5.4376507615        0.1054858920       -5.1365094765
 H        -4.9733673920       -1.3405482927       -2.7849650148
 H        -5.5329369774       -2.5888851851       -3.9172615052
 H        -3.8538058635       -2.7126335634       -2.9508155679
 H        -1.3877698577        1.6688744846       -5.4058716121
 H         0.1596477128        0.7419355966       -5.8993001003
 H         2.1628944325        2.8867448447       -2.0514240759
 H         1.8288572549        2.5461822375       -0.3922347024
 H        -0.3159990181        3.5268982838       -4.9719187118
 H         1.2855141517        3.0707635977       -4.3019108123
 H         0.1267369293        4.3111151713       -3.5705514064
 H        -2.4377642812        1.8766112673       -2.4505929758
 H        -2.0582607719        3.4838276169       -2.4643828824
 H        -2.3420777877        2.7648342028       -3.9884363327
 H         1.6779434561       -0.0737372788       -1.3102610332
 H         2.6052467341        0.4899759405       -2.4734652567
 H         4.5812099357       -2.2596867361        1.9434949924
 H         3.9679575814       -0.6259831605        1.8827942465
 H         5.7562479884       -1.6395280155       -2.2089086409
 H         5.1276840150       -0.1705139660       -2.8852659866
 H         3.9667824972       -1.4479961529       -2.3031665691
 H         6.7380678621        0.2093234979       -0.5713128367
 H         5.7294871101        0.4718081309        0.8485935833
 H         6.4901515300       -0.9338264679        0.5856651390
 H         2.5015548104       -2.3922547181        2.9464233819
 H         2.0413241098       -3.1570881816        1.3468778506
 H        -3.4551275958       -1.3134084729        3.3169938874
 H        -2.0553890194       -2.1824770080        3.9997806473
 H         0.1427353530       -2.4503118171       -0.1531591940
 H        -0.7674204277       -0.9837286367       -0.2343776613
 H        -1.5071614140       -2.4603900620        0.1280397335
 H        -1.5393038884       -3.5175811349        2.3937375126
 H         0.2111900077       -3.9214871190        2.0769245990
 H        -0.1773725230       -3.0777580499        3.5509672049
 H        -2.4591414729        0.8543871203        4.6273060572
 H        -3.2761483444       -0.4672272018        5.4029896707
 H         2.1017431023        1.0424715567        6.9763426947
 H         1.4201707549        0.8205022790        5.4732256415
 H        -3.0846714207        0.9153140469        7.2880918747
 H        -2.3001375294        0.4917547508        8.7774209842
 H        -2.7893222353       -0.7571686404        7.7316902403
 H         0.8153576676       -1.0801674380        7.3752652220
 H        -0.1012544943       -0.7408617497        9.0343218841
 H        -0.5653411986       -1.9557783658        7.8658988678
 H         2.6734398549        3.1380537729        6.3527953664
 H         1.0074573374        3.6812502168        6.0749192571
 H         0.2596882377        5.8831130510        3.4434814278
 H         1.4437236513        6.7157246421        2.4307459754
 H         3.2682681454        6.2378785507        4.4456193030
 H         3.0266994506        4.8842113244        5.5931128102
 H         1.7271584912        5.7786776845        5.0366359665
 H         4.0229485330        3.0866097762        2.4166582869
 H         4.5410250158        4.5820610454        2.9822675047
 H         4.5028969134        3.3813648603        4.1754047820
 H        -0.5467963600        6.8592211241        0.9136568449
 H         0.1834242409        5.4229889107        0.3520985110
 H        -4.2802309025        2.8374089034       -0.3789158447
 H        -5.0001993067        3.7086878734        1.2201538502
 H        -5.2568446607        4.2986797859       -0.3650539371
 H        -4.7295082707        4.4508853624        2.7729264933
 H        -3.7492955096        5.6785610072        3.5860299637
 H        -3.0396345100        4.1969374644        3.4647151965
 H        -2.7265755242        6.9578479079        0.4874939056
 H        -4.2441442944        6.9409394779        1.3317650451
 H        -2.8237430777        7.2954644579        2.3156813061
 Na        0.3371372905        1.7950330881        1.5322645790
