155

 C         0.3313702883       -8.3780685541       -7.1604911266
 C        -0.4738692752       -7.1571819260       -6.5895332559
 C        -1.4614801959       -7.5429142348       -5.3874424084
 C        -2.1104129863       -6.2638036473       -4.7357249713
 C        -2.7566094798       -5.2613191522       -5.7206069836
 C        -2.5924530623       -8.4929465936       -5.9518358483
 C        -0.6991124063       -8.1925925457       -4.2411596293
 O        -0.4250621381       -6.0225976054       -7.0387798712
 O        -2.3436693402       -6.1786981934       -3.5425684605
 C        -2.0886602380       -3.8586309321       -5.4317540620
 C        -2.9225644731       -2.7702812300       -6.1271375696
 C        -3.8089761231       -1.8272375734       -5.1601358203
 C        -2.9067154857       -0.7949055162       -4.5139890799
 C        -1.7855961480       -0.2537784369       -5.3956066032
 O        -2.9250787527       -2.6428960893       -7.3831214671
 O        -3.1269977655       -0.4230489099       -3.3972701408
 C        -4.7748121335       -1.0076612231       -6.0756857767
 C        -4.4246091553       -2.6664006814       -3.9991471891
 C        -1.1748193324        1.0648780863       -5.0787081608
 C        -0.2786712007        1.0997326982       -3.8556974339
 C        -0.1466264446        2.4446692735       -3.0696854215
 C         0.4358493266        2.0612610406       -1.6811418122
 C         2.0097723594        2.1330734583       -1.4416725948
 C         0.7995507081        3.3424837510       -3.8537660516
 C        -1.5061316585        3.0882470458       -2.8487199173
 O         0.3727917081        0.1074527317       -3.5963855675
 O        -0.2581050549        1.6986365011       -0.7473833492
 C         2.4633354125        0.7536294665       -0.8879060423
 C         3.9612414195        0.8258324756       -0.4836625495
 C         4.7135252868       -0.6554452359       -0.1424431342
 C         3.7108597552       -1.4948954931        0.6989132577
 C         3.7864041141       -1.3840777425        2.2498491199
 O         4.5818096025        1.8645211627       -0.3735563400
 O         2.7142974049       -1.9200112144        0.1815743790
 C         4.7864809300       -1.3735152732       -1.5446456268
 C         6.1014469144       -0.3130230854        0.4166437250
 C         2.4271131980       -1.8088783800        2.9089311901
 C         1.2006740179       -1.0975884582        2.1268830913
 C        -0.2113438859       -1.9307923099        1.7511083633
 C        -1.3568200249       -1.2106716002        2.5371029203
 C        -2.1133108684       -1.8087698217        3.7097016268
 C        -0.3009705350       -1.7123299167        0.2220399614
 C        -0.0050398368       -3.4078399714        1.9270103730
 O         1.3251674358        0.0283453954        1.8052414345
 O        -1.6149442960       -0.0434023906        2.1869453075
 C        -2.3840219640       -0.7815334900        4.8563676224
 C        -1.2625323434       -0.8584470614        5.8193522500
 C        -1.3435604890        0.0672970846        7.0447515274
 C        -0.5833739293        1.4783551501        6.5995215514
 C         0.9636730755        1.3538410078        6.6517990731
 O        -0.3165228940       -1.6128411889        5.6524557826
 O        -1.1758076122        2.4837964402        6.3109777321
 C        -2.8224361304        0.3691742570        7.3878041302
 C        -0.6611882859       -0.6431873502        8.2596444185
 C         1.7811798840        2.5893341903        6.0853074071
 C         1.4507014901        2.7811358694        4.5881327356
 C         2.3859831206        3.7274147225        3.6879029549
 C         1.3617759642        3.9664146576        2.4617003488
 C         0.1422090921        4.8657790108        2.9027791024
 C         2.7598495730        5.0354573500        4.4134756247
 C         3.6419513965        2.9482679117        3.0464376777
 O         0.5938821783        2.0434981489        4.1009593001
 O         1.6044843685        3.4764957364        1.3809325919
 C        -0.7093419965        5.4358924786        1.6618382489
 C        -2.0607021708        4.6752178461        1.4465076085
 C        -3.4463861654        5.3288370810        1.0769732055
 C        -4.1639906716        4.6804441608       -0.1216700754
 C        -4.5103007804        3.2024116966       -0.1020570154
 O        -2.0133784475        3.4465373995        1.2105088071
 O        -4.4235109128        5.4438446677       -1.0289781863
 C        -4.3685710690        5.1726723086        2.3508129642
 C        -3.1825127486        6.8435067633        0.9322720263
 H         0.5864299145       -8.1829601078       -8.2473693823
 H         1.2194586882       -8.6299251950       -6.6141678658
 H        -0.3450140994       -9.1806778843       -7.1623354799
 H        -2.7127500470       -5.5501704451       -6.7863201009
 H        -3.8551839680       -5.1513174761       -5.5803648597
 H        -3.1178233730       -9.0499136843       -5.2014092694
 H        -2.1685779251       -9.1505723708       -6.6376683198
 H        -3.3524674414       -7.8903589240       -6.4329125091
 H        -1.3073178252       -8.4647203584       -3.4408841324
 H        -0.2443135844       -9.1566316364       -4.5415855324
 H         0.1005886693       -7.6096301017       -3.8441916344
 H        -2.0886072881       -3.9090606115       -4.4095135077
 H        -1.0440810414       -3.8337158452       -5.8453991419
 H        -0.9456183398       -1.0070736044       -5.4055215093
 H        -2.0492818156       -0.2128850077       -6.4492890247
 H        -5.3431580448       -1.7783859532       -6.6256465442
 H        -4.1623383862       -0.2738618366       -6.7079251537
 H        -5.4864701131       -0.4562055982       -5.4911333181
 H        -5.4289181009       -2.3166812071       -3.6548813615
 H        -4.5933393185       -3.6380509864       -4.4985981311
 H        -3.6440698233       -2.6081073799       -3.2210837988
 H        -1.9301587945        1.8600283236       -5.0331144751
 H        -0.5330088734        1.2041427471       -5.9938689690
 H         2.4723779171        2.4649812719       -2.3840167936
 H         2.1580153689        2.9357820524       -0.6460891435
 H         0.3867413748        3.7650974634       -4.7425327163
 H         1.6814276310        2.7399117620       -4.1534930610
 H         0.8208019818        4.1974194570       -3.1194649612
 H        -2.1525428971        2.9759807008       -3.6697399676
 H        -2.0144161097        2.6146423488       -1.9740256969
 H        -1.3038833126        4.0677459169       -2.6837192391
 H         1.9305914154        0.4333708006       -0.0672293622
 H         2.4258712820        0.0836442522       -1.7841008717
 H         4.6324585986       -1.8017387472        2.6980117795
 H         3.9420638844       -0.3109033985        2.4742666336
 H         5.4619455528       -2.2478891713       -1.5498652680
 H         5.2275868063       -0.8009701066       -2.3445669591
 H         3.7634685893       -1.6240069676       -1.8428202427
 H         6.5485980362        0.4147198396       -0.1895024195
 H         5.9686144191       -0.0362877310        1.4603979359
 H         6.7285577491       -1.1764471790        0.3826760328
 H         2.4429751675       -1.5843168897        3.9812751755
 H         2.1431081720       -2.8140978616        2.8926228749
 H        -3.0087146437       -2.3097323920        3.2811596974
 H        -1.4928138071       -2.6031481698        4.2551728228
 H         0.5105472735       -2.2320427721       -0.3181939087
 H        -0.4083614100       -0.7107085984       -0.1033376546
 H        -1.2015729859       -2.2308420298       -0.0539549096
 H        -0.6329336892       -4.0178081554        1.3368605947
 H         1.0488542948       -3.7289403576        1.7347677284
 H        -0.2866617089       -3.6899793991        2.9732143792
 H        -2.4491307242        0.3090468281        4.5072084911
 H        -3.3162671870       -1.0500893935        5.2643908365
 H         1.3145605425        1.3101475358        7.7610358597
 H         1.4677703698        0.5090036160        6.1823098959
 H        -3.1707024253        1.0195883600        6.5742181393
 H        -2.9313670471        0.8799858076        8.3621009746
 H        -3.3505160790       -0.5490499636        7.4425356531
 H         0.0370792845       -1.3200334233        7.8449959221
 H        -0.3501350023        0.1045110666        9.0016780141
 H        -1.5210609730       -1.2270187547        8.7421834831
 H         2.8609958053        2.5703263712        6.1846191064
 H         1.5495155855        3.5490918758        6.5238823231
 H        -0.5950796601        4.2316175215        3.4612946462
 H         0.5488486737        5.5948593166        3.5153163464
 H         2.9201048811        5.8676533568        3.7328786024
 H         3.6779902465        4.8101688550        5.0046693238
 H         2.0289389873        5.4251552244        5.1092433364
 H         3.8189026821        3.5017561503        2.0948995813
 H         4.5477923432        2.9170263440        3.7176452729
 H         3.4608452113        1.8380050506        3.0435192824
 H        -0.9509454445        6.5050206247        1.8566016222
 H        -0.1998005635        5.3016279699        0.7078301090
 H        -4.5316606517        2.8143996623       -1.1542895702
 H        -3.9225835166        2.7050724938        0.6738677255
 H        -5.5834930351        3.0627123457        0.2696839624
 H        -5.3027193486        4.7168661053        2.1769302754
 H        -4.3470565313        6.0529355651        3.0260444249
 H        -3.8624784718        4.5032772851        3.0174387229
 H        -2.4255093216        7.0417066497        0.1998953325
 H        -4.0953199664        7.4048312803        0.6706736989
 H        -2.7998851838        7.0646607959        1.8598333514
 Na       -0.2011174582        1.7604720749        1.4683494775
