155

 C         1.0255859062       -7.5927336851       -7.1180387857
 C         0.0386961316       -6.8129633875       -6.3024502773
 C        -1.0500192224       -7.4477519404       -5.4017358830
 C        -1.9034582929       -6.3598261780       -4.7001378836
 C        -2.6747980025       -5.3858735100       -5.6257156281
 C        -1.8118375985       -8.4371864586       -6.2655441746
 C        -0.3294855724       -8.2119362098       -4.2553269024
 O         0.0655306030       -5.5753456780       -6.5239247076
 O        -1.9335093120       -6.2001285128       -3.5024670107
 C        -2.1524395419       -3.9639790727       -5.1297115068
 C        -2.7862373976       -2.7881177023       -5.9268192489
 C        -3.7463145589       -1.7138950283       -5.2851912243
 C        -2.6833756962       -0.5142529937       -4.7551916384
 C        -1.6669766941        0.0467244892       -5.8055572223
 O        -2.6127285244       -2.8755430556       -7.1449784296
 O        -2.8125202375       -0.0494482294       -3.6577569610
 C        -4.5872325770       -1.0328367811       -6.3546663007
 C        -4.5894760548       -2.2994759399       -4.1687219785
 C        -0.9522724710        1.3182000316       -5.2435717816
 C        -0.1327713015        1.2077497068       -4.0360191699
 C         0.0301854790        2.4715597157       -3.0169586966
 C         0.6777848662        1.9808536487       -1.6618830116
 C         2.1772320011        1.8622140199       -1.6191596811
 C         0.8153478250        3.5784492210       -3.6278883134
 C        -1.4516148234        3.0012479126       -2.6808671368
 O         0.4809475278        0.1732781263       -3.7354617183
 O        -0.0688955186        1.8888923533       -0.6931773761
 C         2.7796095463        0.4677596113       -1.3718255329
 C         4.0562181409        0.5994102534       -0.5148620408
 C         4.8819046505       -0.7666698440       -0.0987761338
 C         3.7250952561       -1.6043900631        0.6811018745
 C         3.6150940285       -1.5711234744        2.1755522287
 O         4.3838994135        1.7341323517       -0.2327298223
 O         2.7305483008       -2.0529733321        0.0819439330
 C         5.2953367113       -1.7476699897       -1.2743842241
 C         6.1458223134       -0.2694728006        0.7090804722
 C         2.2061684408       -2.0274933434        2.6415254762
 C         1.0622937564       -1.2677542499        2.0526155457
 C        -0.3634574752       -1.8809915792        1.6783168160
 C        -1.4026161702       -1.2770091368        2.7663337343
 C        -1.7576147299       -2.1656002393        3.9735491541
 C        -0.7881938995       -1.3029248020        0.2789902584
 C        -0.3866607112       -3.4511730268        1.6429818935
 O         1.2915975666       -0.0331404571        1.9304151793
 O        -1.7869674410       -0.1383778118        2.6518487608
 C        -2.3155159038       -1.4950183222        5.2197551133
 C        -1.1311170704       -0.9128838004        5.9495294841
 C        -1.5164282876        0.1162900460        7.1427951927
 C        -0.7574942134        1.4653971458        6.6313337106
 C         0.7712394547        1.5192087220        6.7433905408
 O         0.0300381330       -1.1530685663        5.7104001966
 O        -1.3315178680        2.3952047448        6.1656332739
 C        -3.0096398961        0.2219766688        7.3358692792
 C        -0.9431603361       -0.4815973608        8.5048468939
 C         1.4739673444        2.5400993132        5.8822504102
 C         1.1917708647        2.6626092479        4.3088096724
 C         1.9983848155        3.5974930022        3.4610635161
 C         1.0234823337        4.2006786183        2.2785713000
 C        -0.2539006167        5.1098985803        2.6388506424
 C         2.7152441366        4.7833802733        4.1069149790
 C         3.1150965602        2.7028587827        2.7130001595
 O         0.2693842595        1.9936742945        3.8555922299
 O         1.2749334015        4.0431010611        1.1043793188
 C        -1.1236792432        5.5099914915        1.5504542240
 C        -2.3229664370        4.5825756625        1.5032400788
 C        -3.7363994669        5.2167042193        1.3594561113
 C        -4.3021694727        4.4956120057        0.0310322484
 C        -5.5542838068        3.7310487549       -0.0535853982
 O        -2.1577416326        3.3833799212        1.5504749535
 O        -3.6317142274        4.5521113236       -1.0330109826
 C        -4.7010040787        5.1560819940        2.6269584272
 C        -3.6889677692        6.6982406502        0.8700068991
 H         0.8158705934       -7.6382672212       -8.1491135528
 H         1.9341449990       -7.0122147448       -7.0829069212
 H         1.0716421656       -8.6190082010       -6.7134890637
 H        -2.3697747057       -5.4179051740       -6.6865861087
 H        -3.7550663735       -5.3480001022       -5.5889818508
 H        -2.3678973864       -9.1341877666       -5.7132227622
 H        -1.0722259238       -9.0694802448       -6.7491738340
 H        -2.3844562285       -8.0699917245       -7.1274664390
 H        -0.9908560683       -8.8875198962       -3.7177036499
 H         0.5262229563       -8.8072896282       -4.4940091661
 H        -0.0194272048       -7.4950037768       -3.5317854037
 H        -2.2689184394       -3.9711064492       -4.0090300954
 H        -1.1462719665       -4.0668767376       -5.3492087855
 H        -1.0148495474       -0.6580307077       -6.2094024752
 H        -2.3382964723        0.4258270972       -6.5353894335
 H        -5.2089710708       -1.7007138831       -6.9494795024
 H        -3.9539848043       -0.4890093544       -7.0733646646
 H        -5.1784727746       -0.2407826662       -5.7844339193
 H        -4.6731580688       -1.6199956042       -3.3576105089
 H        -5.5674827171       -2.5892240278       -4.6704392277
 H        -3.9771187833       -3.0623020785       -3.6530398122
 H        -1.6530063984        2.0847937722       -5.0826677942
 H        -0.1805325256        1.6696656478       -5.9091421054
 H         2.6068095600        2.2387827736       -2.5941453012
 H         2.4751414043        2.3887372654       -0.7650331979
 H         0.3422068590        3.7651584554       -4.5666614943
 H         1.9132357033        3.2596231012       -3.7771991583
 H         0.8656900335        4.4303091898       -2.9942370201
 H        -1.8146935240        3.6594015790       -3.4656705165
 H        -2.1152567775        2.2388179050       -2.3050714356
 H        -1.2799209051        3.6099254092       -1.7768634958
 H         1.9411100633       -0.1140947426       -0.8238961351
 H         3.0054823289       -0.0312991852       -2.3059725361
 H         4.3845852355       -2.2387112105        2.6355534361
 H         3.8392672193       -0.6396445680        2.5980428478
 H         5.2241940834       -2.7948555904       -1.0454928428
 H         6.3480650997       -1.5903525701       -1.6494240161
 H         4.6699689815       -1.5938131391       -2.1902781410
 H         6.6153385094        0.5833696487        0.1869371111
 H         5.8274942178        0.1574067541        1.6194087682
 H         6.7165760271       -1.1434664790        0.8334709267
 H         2.1243281044       -1.9818986698        3.7345605834
 H         1.9342965159       -3.1244801898        2.4997814426
 H        -2.5451949587       -2.8013278620        3.4981595628
 H        -0.9536572246       -2.8103010476        4.2097353614
 H        -0.2336361679       -1.7134641480       -0.5529464032
 H        -0.6796352045       -0.2454610267        0.2724977882
 H        -1.8301345636       -1.4711109799        0.1802127225
 H        -1.3539671760       -3.6493401385        1.1894048202
 H         0.2931472785       -4.0181017355        0.9621055878
 H        -0.2421755687       -3.9316642716        2.6046924216
 H        -2.9329693093       -0.6777862559        4.8834290765
 H        -2.9557982198       -2.1526398696        5.8644143575
 H         1.0083627493        1.7227175606        7.8180750781
 H         1.3220247609        0.5557161720        6.5438974543
 H        -3.5889944400        0.8072295918        6.5718321659
 H        -3.0666448146        0.7248945141        8.2329391153
 H        -3.4732527462       -0.8050357609        7.4155334331
 H         0.1082768809       -0.7981678372        8.3061479332
 H        -1.1151361917        0.2162595551        9.3289246616
 H        -1.5508521541       -1.3377946452        8.6710696807
 H         2.5230894948        2.6546685329        6.0856654077
 H         1.0581391867        3.5110008770        6.1499076855
 H        -0.7555095212        4.5917117031        3.4384768912
 H        -0.0218623281        6.0286678610        3.2116071428
 H         2.8619346644        5.5493010929        3.3611684977
 H         3.7153099843        4.5114554442        4.3624236093
 H         2.0952135375        5.1510816144        4.9230663520
 H         3.1991616288        1.9262716587        3.4650324355
 H         2.6562682673        2.3693886540        1.7543941045
 H         4.0103218068        3.2230060602        2.3836405302
 H        -1.3464074694        6.5536122625        1.7460621628
 H        -0.5766661140        5.5375861148        0.5837743959
 H        -5.9827496252        4.0839670470       -1.0395066156
 H        -5.1857618611        2.7092210674       -0.0183459295
 H        -6.2115345245        3.7394779723        0.7945244855
 H        -5.3705804542        5.9949491427        2.6009445504
 H        -4.1789411118        5.4524972874        3.5020425895
 H        -5.2868884856        4.2155782113        2.8148771139
 H        -2.9082245043        6.7872819545        0.1858861104
 H        -4.6053958845        6.9916266061        0.3701448631
 H        -3.6635837872        7.3813605404        1.6443705849
 Na       -0.2574721131        1.5781938477        1.6064113560
