155

 C         1.2387044141       -7.4472269176       -7.0274901191
 C         0.2001274257       -6.6505207966       -6.2183779842
 C        -0.8175073499       -7.3507102798       -5.4208160096
 C        -1.7118349415       -6.2755802329       -4.6702246249
 C        -2.4403413098       -5.2468730689       -5.5172436314
 C        -1.6952885042       -8.2119933651       -6.2932392147
 C        -0.1364441716       -8.2487597971       -4.4035320074
 O         0.3584749699       -5.4684602042       -6.1940631257
 O        -1.8932377475       -6.4228065441       -3.4785476851
 C        -2.1174705459       -3.7833583896       -5.0350259117
 C        -2.6971003422       -2.7916601185       -5.9316723404
 C        -3.5298844452       -1.5333250737       -5.3037428924
 C        -2.6017801999       -0.4315235076       -4.7856553909
 C        -1.4191330286       -0.0263885495       -5.7155227890
 O        -2.7136997453       -2.9761256108       -7.1104322087
 O        -2.7356222217        0.0804102478       -3.6591438878
 C        -4.4378412024       -0.9708648069       -6.5712888169
 C        -4.4764947097       -2.0285312019       -4.1913651105
 C        -0.8769614955        1.3604173143       -5.3601569819
 C        -0.1238135959        1.2872158975       -3.9775768491
 C        -0.0752072359        2.4501582698       -2.9432360860
 C         0.7124922654        1.9537917496       -1.7381505144
 C         2.2578767648        1.6871661285       -1.9079329482
 C         0.7032302639        3.5661292039       -3.7158324566
 C        -1.4226498320        2.9010894241       -2.6167954524
 O         0.4298402267        0.2333844772       -3.8031745232
 O         0.1237594043        1.7899725807       -0.6612736098
 C         2.6449921986        0.3288286063       -1.1425109303
 C         3.9095037967        0.4622916516       -0.4260964552
 C         4.8138616976       -0.8262091702       -0.1040797197
 C         3.7518807510       -1.7029893817        0.5297224433
 C         3.5114671140       -1.5198609853        2.0434226963
 O         4.3365259642        1.5138743479       -0.0230224040
 O         2.9627471330       -2.3717215117       -0.0956700059
 C         5.3173398397       -1.3927820563       -1.4998140564
 C         5.9805369777       -0.5146033915        0.9145075894
 C         2.1768154780       -2.1144522808        2.4675760120
 C         1.0181988028       -1.1745622596        2.0111924160
 C        -0.3813177495       -1.8226047388        1.6199995439
 C        -1.2544429671       -1.3342138703        2.7991793213
 C        -1.7912453785       -2.3988905114        3.9250903371
 C        -0.9924557082       -1.1814936521        0.3224722330
 C        -0.3139380405       -3.3491628283        1.4963822273
 O         1.2457863175       -0.0258406857        1.9178140026
 O        -1.5796809170       -0.1573732316        2.9390015439
 C        -2.3342958303       -1.5661600253        5.1084939635
 C        -1.1889249954       -0.8742435183        6.0107638667
 C        -1.4915881089        0.1456815150        7.1585033153
 C        -0.8521534612        1.5365764790        6.6660002042
 C         0.6711045784        1.5054625247        6.4358408086
 O        -0.0287095916       -1.0784567799        5.6584044744
 O        -1.5960120131        2.4209866294        6.3053731033
 C        -2.9566167150        0.5193928223        7.3477981982
 C        -0.7689875803       -0.3175055402        8.4472880989
 C         1.3548344240        2.7491060154        5.7869611618
 C         1.0609360824        2.7046915813        4.2888763289
 C         1.9462880745        3.5545823135        3.3756926149
 C         1.0301407835        4.2245023431        2.2364111971
 C        -0.0337086725        5.0769157935        2.8409496381
 C         2.6468056356        4.7344450976        4.1430834103
 C         2.9903392675        2.6090707208        2.7245374641
 O         0.1028445921        2.1349656507        3.8259565038
 O         1.0256570279        3.7928009707        1.0943280682
 C        -1.1311757243        5.5720488865        1.7461245305
 C        -2.3526049783        4.6693270454        1.5202349615
 C        -3.7467597923        5.1761003325        1.2924824634
 C        -4.2459096313        4.3738862067       -0.0509030674
 C        -5.7197429226        3.8537469818       -0.0915881784
 O        -2.2875694110        3.4419375412        1.7584769484
 O        -3.5092446728        4.0649201540       -0.9135270735
 C        -4.5840756174        4.7643454389        2.5943666101
 C        -4.0180867760        6.6349419067        0.8401413833
 H         0.7893834697       -7.7027114570       -8.0141635280
 H         2.0569536414       -6.7818515781       -7.3344511548
 H         1.5108010600       -8.3842881449       -6.5511547773
 H        -2.1320757577       -5.3532958696       -6.5391418162
 H        -3.5497581630       -5.3096654187       -5.4033965133
 H        -2.3885623713       -8.8898662334       -5.6830500721
 H        -1.2788686666       -8.9540298523       -7.0318089096
 H        -2.2615992412       -7.5515589035       -6.9473570471
 H        -0.7456705536       -9.1396166980       -4.1869798519
 H         0.7988172997       -8.6405202630       -4.8336887101
 H         0.1597266875       -7.8246516171       -3.4174595000
 H        -2.3797031851       -3.7793931867       -4.0016186336
 H        -0.9595525460       -3.7116114486       -5.1154181172
 H        -0.5488861406       -0.7393783098       -5.6857418662
 H        -1.8722290878        0.0952224236       -6.7335303016
 H        -5.0434616691       -1.8623382073       -6.8152353195
 H        -3.8729252651       -0.7905038811       -7.4659342626
 H        -5.0821579613       -0.1571600403       -6.3622470830
 H        -3.8376976979       -2.1023477511       -3.2842449012
 H        -5.2741171238       -1.3483232569       -4.1336695272
 H        -4.8946252174       -3.0499714799       -4.4039611802
 H        -1.7684900707        2.0814608209       -5.2729503385
 H        -0.2655085586        1.7044316594       -6.2074307277
 H         2.3612077654        1.5833042452       -2.9448648842
 H         2.8661819036        2.5136082597       -1.4160750317
 H        -0.0690912828        4.2382632037       -4.1578461711
 H         1.4409102418        3.2916449546       -4.3546176464
 H         1.2561623489        4.0757261021       -2.9297496780
 H        -1.9046701379        3.0418224609       -3.6078088453
 H        -1.8633672217        2.1989485233       -1.9151403318
 H        -1.4632083836        3.8920102999       -2.1014020989
 H         1.8203682885        0.2486317856       -0.4652035848
 H         2.6655295671       -0.5836145500       -1.7677579045
 H         4.2481449073       -2.0884002626        2.6175932594
 H         3.5855338624       -0.4555845357        2.5040320483
 H         5.4660241443       -2.5149037282       -1.3971561003
 H         6.1902120779       -0.8909126598       -1.8849067668
 H         4.6298189225       -1.4080456014       -2.3255400154
 H         6.7406507257        0.0250630025        0.3718324296
 H         5.5527597960        0.3010147920        1.5600485780
 H         6.2259493575       -1.4640307305        1.4818282576
 H         2.2014958377       -2.3207575575        3.5634671285
 H         2.0826512118       -3.1006154710        2.0710912484
 H        -2.4741257270       -3.1037148945        3.5351255363
 H        -0.9487295652       -2.9675824694        4.3963435679
 H        -0.3263850057       -1.2647544386       -0.5210576769
 H        -1.3045676929       -0.1250194433        0.5143927985
 H        -1.9512623123       -1.7295774057        0.1579076919
 H        -1.3141151279       -3.8360429913        1.6162480690
 H         0.0091103610       -3.6878870634        0.5468808229
 H         0.3899070109       -3.7525681994        2.2453047736
 H        -3.0362513380       -0.7716350943        4.7681001855
 H        -2.9482529746       -2.2349307102        5.6926448573
 H         1.0358428731        1.3591063652        7.4181176826
 H         1.0634751515        0.6959367447        5.8710755486
 H        -3.3027375356        0.8908454876        6.4181430422
 H        -3.1482878716        1.2844365456        8.1866351219
 H        -3.4891890617       -0.4020542367        7.4237953202
 H         0.1837046385       -0.7583500533        8.2367917684
 H        -0.5805770597        0.5919042697        8.9955569527
 H        -1.4560795875       -0.9902603639        8.9477761013
 H         2.4766222086        2.7250241393        5.8266416619
 H         1.0653981659        3.7598753943        6.1700730978
 H        -0.4562383109        4.6372122870        3.7934796289
 H         0.5163482131        5.9070308127        3.3079453423
 H         3.5166769406        5.1350638901        3.6042613603
 H         3.0722506267        4.3004202516        5.0938233454
 H         1.8936732259        5.4306267290        4.5104389438
 H         2.6273483317        1.6130281349        2.8613326399
 H         3.0618033613        2.7994849274        1.6751539537
 H         3.9076986924        2.9021199323        3.2421991991
 H        -1.3913556705        6.6089064186        1.9751938271
 H        -0.6867127500        5.7025436902        0.7640081270
 H        -5.9609056718        3.7372021837       -1.0909482876
 H        -5.6955872752        2.9126039931        0.4897774029
 H        -6.4100151410        4.4877612867        0.4537920587
 H        -5.6644783247        4.6055879790        2.4417974864
 H        -4.6277931534        5.5727187010        3.3479586120
 H        -4.1445776390        3.8972429661        2.9819995654
 H        -3.4801647709        6.9048795803       -0.1212583432
 H        -5.0789324834        6.8195334709        0.7500000365
 H        -3.6743173917        7.4163172323        1.6632854067
 Na       -0.8063157054        1.6320214920        1.5803832706
