155

 C         2.2099188079       -6.0995792801       -6.9199763145
 C         1.5353753747       -5.9352309005       -5.5451096945
 C         0.2090660132       -6.6979035151       -5.1694347618
 C        -0.9057562470       -5.7142475057       -4.6826389549
 C        -1.7013593429       -4.8340358531       -5.7266262997
 C        -0.2850051885       -7.4567962071       -6.4114603449
 C         0.6296067432       -7.7391415851       -4.1084723938
 O         1.9335407247       -5.2035221368       -4.6883545598
 O        -1.2368312456       -5.6948280389       -3.5159534367
 C        -2.6337727159       -3.7986477048       -5.1222955505
 C        -2.7365530008       -2.6688572720       -6.0730919654
 C        -3.2711524112       -1.3258332359       -5.5502417270
 C        -2.1236374534       -0.5673159965       -4.9196513430
 C        -0.7325699218       -0.4749858463       -5.7952253564
 O        -2.3509775097       -2.7891049486       -7.2333993837
 O        -2.1656156972       -0.1031394078       -3.8319708232
 C        -3.6954248381       -0.5500302266       -6.7285571153
 C        -4.4625980317       -1.5277959551       -4.5822396238
 C        -0.1134704469        0.9647534119       -5.5334797792
 C         0.2819507768        0.9399305757       -4.0742341809
 C         0.2668149166        2.1564289388       -3.0103722847
 C         0.2709670184        1.6410291629       -1.5592503478
 C         1.5999415588        1.4930942593       -0.9028317390
 C         1.3491110494        3.1583628934       -3.3178166091
 C        -1.0446699640        2.9327767562       -3.2314166934
 O         0.7456996949       -0.0729632552       -3.6346033254
 O        -0.7284153024        1.5059407962       -0.9377682851
 C         2.5660451038        0.2369280323       -1.2817146944
 C         3.7886979806        0.1756074366       -0.3591913893
 C         4.7638203639       -1.0793011669       -0.3792667871
 C         3.8906455271       -2.2483599474        0.2579107187
 C         3.0849952627       -2.0286737041        1.5490101719
 O         3.8394756545        0.9881707847        0.5381376471
 O         3.8820214846       -3.3072315673       -0.3080294884
 C         5.0128231568       -1.4904448821       -1.8696080512
 C         6.0970080419       -0.6425673659        0.4455469459
 C         1.6006407972       -2.5718512039        1.5962980116
 C         0.4988751747       -1.5229133924        1.6261133879
 C        -0.9676781834       -2.0690146006        1.5509008409
 C        -1.9332639685       -1.2281490047        2.5641840700
 C        -2.3327983786       -1.9134813430        3.8285337379
 C        -1.4029021123       -1.9009857878        0.1140624215
 C        -0.9995941558       -3.5668311345        1.8276574519
 O         0.7631284111       -0.3712574937        1.3578349163
 O        -2.2913580861       -0.0833068890        2.3091893428
 C        -2.6132742872       -0.7948829917        4.9320327483
 C        -1.3664203213       -0.6601336137        5.8718581562
 C        -1.5292212331        0.2283262159        7.0625415060
 C        -0.9463346672        1.7444971735        6.6285102300
 C         0.6099845750        1.8793910701        6.5242016869
 O        -0.3094380331       -1.1918361641        5.5309510343
 O        -1.7775809388        2.6181642299        6.4365231391
 C        -3.0491416917        0.6000870325        7.4857225065
 C        -0.8684911855       -0.3234947695        8.3089244573
 C         1.0923433898        3.1867416732        5.8798229205
 C         0.9259545835        3.1153708908        4.3107366844
 C         1.4864305382        4.2104993668        3.4066257996
 C         0.5351996133        4.3487637583        2.2424214762
 C        -0.5199420539        5.5090100455        2.3652460873
 C         1.8635072938        5.5538447923        4.1289841913
 C         2.8623509287        3.7102966007        2.6694665503
 O         0.3850281918        2.1087898168        3.8712272033
 O         0.5595499806        3.7891203688        1.1367799099
 C        -1.7654301635        5.3711109659        1.4643877315
 C        -2.7479604869        4.2135339605        1.9696920856
 C        -4.2003312804        4.5065101120        1.7633323596
 C        -4.6598997327        3.7399805823        0.4488989106
 C        -5.6930302817        4.5196050479       -0.3684289903
 O        -2.3759225500        3.0885916277        2.2104747962
 O        -4.2362284887        2.6260138191        0.2670060363
 C        -5.0102692095        3.8213709905        2.9491474133
 C        -4.5962356250        5.9880596386        1.8090776890
 H         1.4599903490       -5.8290655964       -7.5877402500
 H         3.0973535674       -5.4568995553       -6.9645444764
 H         2.5766609183       -7.1443933885       -7.1695469046
 H        -1.0079339611       -4.3943456166       -6.4108929489
 H        -2.2931443632       -5.5663453031       -6.3856688281
 H        -1.0645920144       -8.1497865519       -6.2078513842
 H         0.5450932654       -8.0355911615       -6.8357015068
 H        -0.6313208396       -6.8317854310       -7.2601160376
 H        -0.2613722190       -7.9402503838       -3.4175980684
 H         1.0128132064       -8.6612677941       -4.5300568101
 H         1.3827913604       -7.2032778899       -3.4824991820
 H        -3.6040609465       -4.2727919822       -4.9118141256
 H        -2.2521419159       -3.5103670344       -4.1433097825
 H        -0.1175858534       -1.3399899888       -5.6100628602
 H        -0.9392514739       -0.5350418345       -6.8649809369
 H        -4.6308896026       -0.8932189206       -7.0659263027
 H        -3.0855326118       -0.6739724141       -7.5945559566
 H        -3.6632265531        0.5355166341       -6.6000391336
 H        -5.1052956184       -2.4108482019       -4.6831677566
 H        -4.0988011340       -1.4110819788       -3.5307010753
 H        -5.2906454954       -0.7512960289       -4.6984599205
 H        -0.8641137665        1.7570206996       -5.6860933007
 H         0.7632786481        1.1405539807       -6.1163746930
 H         2.2174616078        2.3776010869       -0.9989734083
 H         1.4431031197        1.4757000335        0.1234931510
 H         1.7909576487        3.1035009955       -4.3262071183
 H         2.3100692316        3.1124768287       -2.6511846965
 H         1.0076915579        4.1865044550       -3.2209196064
 H        -0.9591096090        3.5433861550       -4.0693261544
 H        -1.8519222608        2.2729847993       -3.5675257783
 H        -1.3765808517        3.5132260581       -2.3964587663
 H         1.8246171611       -0.6441586467       -1.2752416841
 H         2.8222995879        0.1903749813       -2.3552438300
 H         3.6740073214       -2.4608746709        2.3190708764
 H         3.0957167678       -0.9793237221        1.7375905760
 H         5.9986071965       -1.7494281660       -2.0517886230
 H         5.0247440376       -0.5799501805       -2.4693286878
 H         4.2491690957       -2.1741654738       -2.1850981387
 H         6.3944694923        0.3035079515       -0.0833114696
 H         5.9460597993       -0.4258852541        1.4792495724
 H         6.8005211996       -1.3925871631        0.1632367197
 H         1.5601862317       -3.4105077647        2.3285755866
 H         1.5507406589       -3.0861297649        0.6493177141
 H        -3.2426063693       -2.4901845695        3.6322193389
 H        -1.5303291797       -2.6607364953        4.1509329367
 H        -0.4951868467       -1.8613180825       -0.5408213057
 H        -1.8844990535       -0.9235007017        0.0656193416
 H        -1.9767426378       -2.8108132724       -0.2014573112
 H        -2.0180836137       -3.7974032995        1.5380402159
 H        -0.3923086793       -4.0795731135        1.0819606962
 H        -0.6572811256       -3.9660894765        2.7260504426
 H        -2.9763037929        0.1427815620        4.5066757471
 H        -3.4177767615       -1.1598555449        5.6539916774
 H         1.1370743100        1.7471410313        7.4633712235
 H         0.8735467829        0.9537920661        5.8709326013
 H        -3.5104220289        1.2693689525        6.7670361633
 H        -3.0638824199        1.1394616105        8.3579809851
 H        -3.7925741540       -0.2425855469        7.5524867216
 H         0.1510530493       -0.6571180680        7.9148875013
 H        -0.8335695999        0.4217615255        9.1177440785
 H        -1.3509540704       -1.1515758803        8.7656149891
 H         2.1600118041        3.3861796700        6.0923633132
 H         0.4338030728        3.9443270910        6.2861847946
 H        -0.8805989385        5.2979825706        3.3560697539
 H        -0.0814106700        6.5107355836        2.3465866887
 H         2.6220795124        6.0778941039        3.5542318773
 H         2.4649240463        5.3103490459        5.0070095446
 H         0.9999288105        6.2180135254        4.3057178241
 H         2.8473299703        2.5868779587        2.7230670861
 H         3.0356064502        4.2758769231        1.6752331562
 H         3.7193826129        4.0344988026        3.3186085411
 H        -2.3192289793        6.2851131641        1.5229925410
 H        -1.3538561074        5.2945008713        0.4272110887
 H        -6.0001088306        4.0296628676       -1.3546425039
 H        -6.5273507590        4.6496752195        0.3309750443
 H        -5.2537917064        5.4744428426       -0.5548944743
 H        -6.0126649110        3.5298216875        2.6091067494
 H        -4.9829058735        4.4456954152        3.7984128538
 H        -4.4467543693        2.8872871145        3.2073017258
 H        -4.4407179713        6.4176420251        0.8482713185
 H        -5.7177218094        6.0514692328        2.0170699985
 H        -4.2370471818        6.6128248087        2.5947131434
 Na       -0.5204931295        1.5105435436        1.4385580065
