155

 C         3.1921211455       -4.9248429873       -6.4788813571
 C         2.4110183350       -4.8666324478       -5.1523136299
 C         1.5408960842       -5.9949541211       -4.4954890135
 C        -0.0273302395       -5.4621046021       -4.5079563743
 C        -0.2380994389       -4.0406929233       -5.1733180790
 C         1.4830261743       -7.2344216888       -5.4591076373
 C         1.9635991069       -6.4641376621       -3.0576638195
 O         2.3717633186       -3.7813324470       -4.5573392527
 O        -0.8798308168       -6.1855607133       -4.1435329505
 C        -1.7242585310       -3.6501945177       -5.3397293155
 C        -1.9396317788       -2.7831581522       -6.5907800072
 C        -2.8264029004       -1.5473974329       -6.4846400547
 C        -1.8802552042       -0.3553547370       -5.6478392605
 C        -0.3353885873       -0.3244759116       -5.8864846960
 O        -1.3340625360       -3.0280570584       -7.5726454944
 O        -2.4545133094        0.4438550301       -4.9592088900
 C        -3.2115401117       -0.9568588515       -7.8950810716
 C        -4.0576944000       -1.7662753786       -5.5858174689
 C         0.4515428315        0.8441959991       -5.2642033454
 C         0.4724637396        0.7867623028       -3.7094837519
 C         0.7209553353        2.2781021470       -2.9820701307
 C         0.9142209130        2.1336623056       -1.4820770704
 C         2.1984048391        1.7982089035       -0.6551365139
 C         2.0229145571        2.9541359636       -3.6152427211
 C        -0.5119623981        3.1750369759       -3.3128952834
 O         0.3186830015       -0.1220202100       -2.9544589180
 O        -0.1218707069        2.0196791837       -0.8204792205
 C         2.8692297975        0.4904860605       -1.1585228030
 C         4.0395875702       -0.0257335424       -0.2991809865
 C         4.1387432828       -1.5622353553       -0.1792755926
 C         2.8228249092       -2.2580942559        0.4168800872
 C         2.7627549689       -2.6572799172        1.8709809225
 O         4.9047916874        0.7290012481        0.0517172280
 O         1.9605929487       -2.5540200008       -0.3544255155
 C         4.2868588942       -2.0887534581       -1.5863290126
 C         5.4470933101       -1.8755391826        0.5406356835
 C         1.2568782716       -2.9307693876        2.3659743901
 C         0.3959209211       -1.7508118446        1.8596981666
 C        -1.2109487151       -2.0203695253        1.5901368698
 C        -1.9246273365       -1.2952036956        2.7306537256
 C        -2.4441641583       -2.2063195054        3.8668013221
 C        -1.6456885580       -1.3725920624        0.2898290679
 C        -1.4707501965       -3.4939729052        1.3926798710
 O         0.8733437033       -0.6149506098        1.6944641480
 O        -2.2481231071       -0.1353460410        2.6669371596
 C        -2.7561402112       -1.3724847040        5.0408533050
 C        -1.5348254302       -0.7012570802        5.6099074302
 C        -1.7768356157        0.4198461072        6.7148259832
 C        -0.8765124090        1.6096153472        6.2249786836
 C         0.7067976652        1.5532750192        6.1358467094
 O        -0.4064297371       -0.9516265033        5.2794466971
 O        -1.4196460743        2.5370838678        5.7058572603
 C        -3.2779347325        0.8547173872        6.8220920484
 C        -1.3042773323       -0.1357978363        7.9988363748
 C         1.1326063282        2.9453056962        5.6506308970
 C         0.7925050925        3.1159133646        4.1654741529
 C         0.7005994741        4.5932497173        3.5084709976
 C        -0.3569885855        4.4456999908        2.2760745021
 C        -1.7032356972        5.1376623666        2.3476855303
 C         0.1578712612        5.4955032189        4.5842285756
 C         2.1645726335        4.9867761319        2.9664062522
 O         0.6466586578        2.1118997412        3.4806811552
 O         0.0357122371        3.8777604062        1.2838594834
 C        -2.4809582635        4.7136806552        1.1615722767
 C        -3.2830265398        3.4027204650        1.5615393434
 C        -4.6746029367        3.5947635824        2.0788035719
 C        -5.8338768898        3.6921512621        0.9111753727
 C        -6.1769892595        5.1561148235        0.4598864096
 O        -2.7450283493        2.3348228915        1.2545104735
 O        -6.3698303629        2.6566801632        0.5913947814
 C        -5.0567042758        2.3163979426        2.8334248805
 C        -4.7592112256        4.7368632206        3.0444076622
 H         2.4576313193       -4.4345954647       -7.1896363132
 H         4.1625512520       -4.4533254082       -6.4664199519
 H         3.4046376035       -5.8901592226       -6.7838928710
 H         0.1991393251       -3.1655614210       -4.6305524331
 H         0.2635771778       -4.0992654449       -6.1113430257
 H         0.7909075193       -7.9561109931       -4.9892178101
 H         2.4274452011       -7.6920029600       -5.4634823597
 H         1.1977480978       -6.8911329613       -6.4450675331
 H         1.0621560590       -6.8853117704       -2.6438806795
 H         2.7978983165       -7.2368470250       -3.1838078510
 H         2.2150873204       -5.5294925808       -2.5631732148
 H        -2.3772578275       -4.5534443249       -5.5191479628
 H        -2.1239930676       -3.1897468780       -4.4052045061
 H         0.0772474663       -1.2133488417       -5.5333415303
 H        -0.2574867584       -0.2645363259       -6.9378279761
 H        -3.7195921497       -1.6633796499       -8.5671164561
 H        -2.3166514816       -0.6707038963       -8.4320110366
 H        -3.7038306143       -0.0289137649       -7.7578685218
 H        -3.8912503137       -1.4592276804       -4.4944210625
 H        -4.9571442605       -1.1618018438       -5.8583373828
 H        -4.3274481574       -2.8268053394       -5.7043712539
 H         0.1478145313        1.8172032412       -5.4555662304
 H         1.4650164455        0.7426776804       -5.6985422573
 H         2.9362977484        2.6596669049       -0.5880356379
 H         1.8415431823        1.7679258786        0.3961262239
 H         2.1165885365        2.8474944038       -4.7177486249
 H         2.8471270684        2.5395387718       -3.0799958280
 H         2.0009327457        3.9521693125       -3.3272514633
 H        -0.8433823443        3.1838566405       -4.3790449501
 H        -1.3718680303        2.8185350121       -2.8551755861
 H        -0.3672780809        4.1466059802       -2.9084310252
 H         2.0358309938       -0.1613954581       -1.3618576058
 H         3.3720155457        0.6774478335       -2.0441730817
 H         3.3082966970       -3.6860056753        1.7942627498
 H         3.2853895394       -1.9542989832        2.5212099945
 H         5.0025804573       -2.9200240999       -1.5883817404
 H         4.8408121731       -1.4554714726       -2.2137637021
 H         3.3368996668       -2.3045509384       -1.9992293779
 H         6.2479366179       -1.5753392242       -0.0793731361
 H         5.5789028629       -1.3167226697        1.4935889483
 H         5.6472384536       -2.9231129678        0.8210754685
 H         1.2081471577       -2.8200573158        3.4538226199
 H         1.0410098283       -4.0093944632        2.1039019348
 H        -3.3116869685       -2.8422315057        3.6082434447
 H        -1.6526969722       -2.8564333763        4.0938370386
 H        -2.7288739527       -1.1774886108        0.3460869703
 H        -1.7402145808       -2.1906945523       -0.4727424332
 H        -1.0388512352       -0.5064506653       -0.0127461210
 H        -2.4925352992       -3.7212197180        1.1027379326
 H        -0.7971328425       -3.8207236752        0.6196826963
 H        -1.3142848078       -4.2149938296        2.2168028583
 H        -3.3413015780       -0.5484198763        4.7392957230
 H        -3.2971768847       -1.8990185200        5.8827958134
 H         1.0207738149        1.4318758203        7.1436955327
 H         0.9423352408        0.7945152068        5.4359137235
 H        -3.6123405604        1.2476710411        5.8849693078
 H        -3.3916749951        1.7207334977        7.5377404614
 H        -3.8838751540        0.0533274757        7.0965708444
 H        -0.2600986913       -0.1962665067        7.9483154663
 H        -1.5767469338        0.4283334089        8.8943255653
 H        -1.5963835918       -1.1563905386        8.3764603128
 H         2.2500389797        2.9672808132        5.6539483585
 H         0.8153946212        3.6079097948        6.4764389642
 H        -2.1439809573        4.8994839263        3.2692207792
 H        -1.7193285649        6.2798122700        2.4014863743
 H         0.2453731081        6.5434195003        4.2158458203
 H         0.9526329215        5.5742703511        5.3467037247
 H        -0.8655216348        5.3139378622        4.9060708521
 H         2.9334678948        4.2577692217        2.6827015007
 H         1.8939459462        5.4145490934        1.9963486842
 H         2.7366605687        5.7084397746        3.6481004010
 H        -3.1754154962        5.4206975036        0.7723985717
 H        -1.8402698026        4.4411514385        0.3036753949
 H        -6.8830119138        5.2260368734       -0.3362870615
 H        -6.6969829202        5.7454316779        1.2278424182
 H        -5.1795859469        5.6235027684        0.1467222600
 H        -4.9994347219        2.5930904899        3.8514556063
 H        -4.3038228335        1.5067654253        2.7050850933
 H        -6.0670287000        1.9780462028        2.5487408544
 H        -4.5014270779        5.7251846113        2.5793366310
 H        -5.6697623929        4.8503813333        3.5240892569
 H        -4.0251801796        4.4819400795        3.8291258503
 Na       -0.5939452763        1.3929040265        1.5634887011
