155

 C         2.8774725482       -5.3556486261       -6.9597977903
 C         3.3187914683       -5.3675375270       -5.4981168829
 C         2.1531722410       -6.0285825492       -4.4397720404
 C         0.9905579630       -5.1457896674       -4.8255214576
 C         0.8038480415       -3.6894469514       -4.2855262647
 C         1.8514962703       -7.5329238203       -4.7855348423
 C         2.5861062950       -5.8557537834       -2.9547643489
 O         4.3436887886       -4.9331114716       -5.0142299278
 O         0.1961521656       -5.6390783253       -5.6543688647
 C        -0.3299003711       -2.9177577757       -4.9167046258
 C        -0.0608911601       -2.5793884690       -6.4503017133
 C        -1.2428083874       -1.7896878104       -7.1090948559
 C        -1.3724379800       -0.1829985290       -6.6729396007
 C        -0.0918870447        0.6807303066       -6.5643962273
 O         0.9311626267       -2.8464237083       -7.0271666698
 O        -2.4108299561        0.2392720593       -6.2798829279
 C        -1.1228124300       -1.9875018600       -8.6362397772
 C        -2.6249431908       -2.5368475055       -6.7506792291
 C        -0.1675691239        1.8734737085       -5.6609632933
 C         0.6749347130        1.7154668588       -4.3473928279
 C         0.4991626631        2.8507197222       -3.1978167079
 C         0.9033301687        2.1956309412       -1.7577392488
 C         2.4145318494        1.9074225593       -1.3899084561
 C         1.4909104869        3.9605133776       -3.5691623610
 C        -0.9709294003        3.4189917556       -3.0015716281
 O         1.6046844431        0.9523310070       -4.2556484623
 O         0.0102649475        2.0219736052       -0.9092987170
 C         2.6020333839        0.4690820021       -1.0220417856
 C         3.9224732920        0.1683963064       -0.3297566399
 C         4.2438961462       -1.3803763875       -0.0300637961
 C         2.9090186624       -2.0336190389        0.5072904910
 C         2.5795547492       -1.9785179663        2.0016384094
 O         4.5197461513        1.0407518594        0.2310600817
 O         2.3153010806       -2.8829363414       -0.1603200357
 C         4.8371047684       -2.0067034722       -1.3383113080
 C         5.3225448062       -1.5101876127        1.0091103486
 C         1.2642993364       -2.6021191695        2.3584940919
 C         0.1179967971       -1.7514711796        1.8160964443
 C        -1.3553465760       -2.3578628818        1.9331545458
 C        -2.0368488575       -1.2317763572        2.9180404936
 C        -3.1061168264       -1.7692292615        3.8804925456
 C        -2.0619347646       -2.1515064307        0.5748795613
 C        -1.4608214235       -3.7831767815        2.3889723509
 O         0.2519364929       -0.6716678700        1.2762610997
 O        -1.8881768189       -0.0511776205        2.7578927185
 C        -3.3549206524       -0.7048831764        4.9341622558
 C        -2.1137053656       -0.6300888714        5.8438043312
 C        -2.1774852510        0.3091957263        7.0648535928
 C        -1.4837039335        1.5979323440        6.4728718794
 C         0.0435777115        1.5964627639        6.5781971133
 O        -1.1192611197       -1.3084604226        5.7187246833
 O        -2.0057836442        2.4776107713        5.8397114984
 C        -3.5560941517        0.5996448025        7.6238183548
 C        -1.4178044866       -0.2820128621        8.2886698291
 C         0.7189085102        2.7413854071        5.7792728351
 C         0.2412578349        2.8076849043        4.2939065264
 C         0.1647932701        4.2870986603        3.6216816107
 C        -1.1125422166        4.2526668038        2.5898492055
 C        -2.4771244365        4.7836709827        3.1008716107
 C        -0.1805877736        5.3512793229        4.6653360241
 C         1.4162640493        4.6429929463        2.7652364594
 O         0.0114229478        1.8007560158        3.6528493292
 O        -0.8991254173        3.8330553256        1.4573040640
 C        -3.6177734139        4.7033313049        2.0706865820
 C        -4.0551679766        3.2394371960        1.9610242289
 C        -5.4816870754        2.8677068205        2.3071705753
 C        -6.4109741120        3.4484452270        1.0004967591
 C        -7.3701229893        4.6233794944        1.2095066858
 O        -3.2844988714        2.4063338713        1.5098087905
 O        -6.0842210741        3.1304843756       -0.1300790887
 C        -5.7369771518        1.3223488296        2.4666793926
 C        -5.8721950246        3.5901480980        3.6018383474
 H         3.3059019439       -4.5010464521       -7.5485254564
 H         3.1866763915       -6.2279486955       -7.4954784533
 H         1.8019338804       -5.2368408580       -6.8900539112
 H         0.4894317692       -3.8819328324       -3.2016407146
 H         1.7743607906       -3.1199625869       -4.3407358021
 H         0.9613453065       -7.9514836746       -4.3246328216
 H         2.6781869004       -8.2457286329       -4.5278508831
 H         1.6560769035       -7.7615283400       -5.8935934826
 H         2.1014179588       -5.0556460106       -2.3901013773
 H         2.3900511619       -6.7251491784       -2.3754242836
 H         3.6636962217       -5.6949770918       -2.8598394447
 H        -1.2819420636       -3.4891681247       -4.8618595984
 H        -0.5761908138       -2.0166450651       -4.3139515163
 H         0.6655101404        0.0370001157       -6.1820941195
 H         0.1897143915        1.0191511388       -7.5905612074
 H        -0.8348739746       -2.9941994165       -8.8049595073
 H        -0.4292569712       -1.2437127920       -9.0179224721
 H        -2.0174513485       -1.7238192687       -9.2135068780
 H        -3.3166977495       -2.0302574703       -7.3543160281
 H        -2.4944662103       -3.5983532418       -7.0618324945
 H        -2.8761369324       -2.2678580876       -5.7049687334
 H        -1.1471126228        2.1465492590       -5.3971028586
 H         0.2782875500        2.6848174728       -6.2476264657
 H         3.0218069081        2.1225428079       -2.2445902989
 H         2.6050674481        2.6800465974       -0.6168141330
 H         1.3817560017        4.0137665809       -4.6243208888
 H         2.4789719158        3.6913407261       -3.4165975642
 H         1.3899403555        4.9330948362       -3.0220639462
 H        -1.4847240070        3.8129159790       -3.9033517949
 H        -1.5012123363        2.4898925406       -2.6716915014
 H        -0.9068700088        4.1633749760       -2.1736040613
 H         1.8547955770        0.1929839447       -0.2996891614
 H         2.5069110365       -0.1256373393       -1.9903316307
 H         3.3816831846       -2.5655671822        2.4452078043
 H         2.6980008886       -0.9570592082        2.5069109801
 H         5.1137401683       -3.0138986140       -1.2540009154
 H         5.7383044116       -1.4836517131       -1.6302922802
 H         3.9595772289       -1.9476632544       -1.9222550271
 H         6.2482514277       -1.0252219414        0.5657639252
 H         5.2525776240       -1.1553335292        2.0483461675
 H         5.5687413627       -2.5872921577        1.0865512342
 H         1.1391154689       -2.7314812399        3.4276927825
 H         1.1659720952       -3.6320868482        1.9019302177
 H        -4.0115861763       -1.8941220026        3.2597819130
 H        -2.8656824220       -2.7380764631        4.2815105423
 H        -3.1398638948       -1.9563253651        0.4417500877
 H        -2.0769279668       -3.1308707337        0.1435710461
 H        -1.5014508990       -1.4847561980       -0.0718703502
 H        -2.4809203781       -3.9657739704        2.4641675183
 H        -1.0833197844       -4.4871412607        1.5724931102
 H        -0.9101470146       -3.9460026491        3.2957117654
 H        -3.5381105890        0.2937255238        4.5897402782
 H        -4.2370774632       -1.0154157365        5.5351042533
 H         0.3193453445        1.6605969699        7.6707402376
 H         0.5983151650        0.7368496920        6.2819423962
 H        -4.1509341749        1.2195881945        6.9909719007
 H        -3.4058826410        0.9936443188        8.6545248213
 H        -4.1666518663       -0.2681998545        7.7213365072
 H        -0.5835860530       -0.9148861114        7.9681054923
 H        -1.0630304133        0.2579878545        9.1954413372
 H        -2.0984091670       -1.0090062108        8.7450939313
 H         1.7914188616        2.7638070012        5.7185541396
 H         0.3419998844        3.6401144299        6.2578519991
 H        -2.8089240557        4.2743969231        3.9966273140
 H        -2.2795824667        5.8398069794        3.4948943973
 H        -0.2925978867        6.2080132954        4.0302081996
 H         0.7612327156        5.4182928979        5.1891197038
 H        -0.9529737198        5.2925220396        5.4512596467
 H         1.8624415249        5.6560831406        2.9250855573
 H         2.1966682910        3.8793304696        3.0901452285
 H         1.2207794428        4.5088836027        1.6571955523
 H        -4.3858545152        5.4329146044        2.4192918359
 H        -3.4189603312        5.1247346923        1.1348617841
 H        -7.8876022798        4.7958970111        0.3111272446
 H        -8.1288670830        4.5518419329        2.0200682180
 H        -6.7023162798        5.4617447420        1.3598956261
 H        -6.7564868851        0.9848624356        2.7817956581
 H        -5.0969256565        0.9779328916        3.2763709150
 H        -5.4731800073        0.8574503784        1.5102020608
 H        -5.9217893473        4.7113152321        3.4472870738
 H        -6.8718046891        3.2574245701        4.0013699409
 H        -5.0557388636        3.6140499310        4.3055223199
 Na       -0.7593955377        1.5755822209        1.2912923593
