155

 C         4.8542857900       -6.8751016460       -7.3229147825
 C         4.1314379891       -7.3589490182       -6.0476090934
 C         2.6123365961       -7.3412542446       -6.1703548014
 C         2.1269659098       -5.7308148302       -5.9874565932
 C         2.1549427480       -5.1379421254       -4.5056220109
 C         2.0157008511       -7.7690323168       -7.5501501256
 C         1.9827992892       -8.1445134028       -5.0354759741
 O         4.6752953928       -7.6769428307       -5.0013626014
 O         1.7848998724       -5.0281910166       -6.9404863738
 C         1.8160798912       -3.7089651263       -4.4164885165
 C         2.6525213777       -2.7465720251       -5.1774184195
 C         1.9860565772       -1.4164601251       -5.8219633716
 C         1.4013416687       -0.5141324615       -4.7018337287
 C         0.8713191185        0.9405319389       -5.0597705390
 O         3.7834388460       -3.1033300812       -5.4017916981
 O         1.7041591295       -0.6682389520       -3.5330526699
 C         3.1391802769       -0.6039081581       -6.5032128482
 C         0.8872083672       -1.7402407382       -6.8706245453
 C        -0.3076499809        1.4077447935       -4.1156716243
 C        -0.0533846983        2.7654706260       -3.5264342855
 C        -1.1440291365        3.3685741724       -2.5453159170
 C        -0.9072328485        2.6550705264       -1.2536225298
 C         0.4320034879        2.9290862493       -0.4893744738
 C        -0.8620743118        4.9489972667       -2.4027999910
 C        -2.6010352734        3.2304874530       -2.9615150981
 O         0.9875018933        3.4026741152       -3.5882867235
 O        -1.8181164451        1.9539953812       -0.8193313683
 C         1.5044804000        1.9044339004       -0.7482697994
 C         2.6625643317        1.9604474902        0.2474598546
 C         3.6663989054        0.7257938328        0.4811223067
 C         2.8945751661       -0.6986861335        0.6867050434
 C         2.5201214746       -1.0065561137        2.1786101867
 O         2.7791253679        2.9177991300        1.0514343188
 O         2.5333942821       -1.3619025081       -0.2826253335
 C         4.4155710931        0.4605931580       -0.8559051468
 C         4.6173356587        1.1566027326        1.5874243447
 C         1.4025985495       -2.1003536237        2.1255135560
 C         0.0852009674       -1.6043638089        1.5952378659
 C        -1.1363373961       -2.4060336284        1.6798431464
 C        -2.0791637970       -1.7333620528        2.7563968444
 C        -2.8708732361       -2.6355036664        3.8606266234
 C        -2.0606240070       -2.2701094261        0.3930119411
 C        -0.9076390612       -3.9133556561        1.9896933966
 O         0.0038551181       -0.4566984234        1.1305299831
 O        -2.3298951302       -0.5349511414        2.7217902934
 C        -3.1734886108       -1.6504603774        4.9907841385
 C        -1.9810240984       -1.5649315433        6.0094449012
 C        -1.8738422476       -0.2747372716        7.0253148004
 C        -1.3087820809        1.0527024352        6.2992615254
 C         0.1469947563        1.0019983105        5.5294392727
 O        -1.0844553030       -2.3854016585        6.0242829031
 O        -1.9572063143        2.1162043332        6.2333728161
 C        -3.2816785847        0.2270541030        7.5034095649
 C        -0.9829608692       -0.7287786541        8.2811314938
 C         0.5349398583        2.4275286387        5.0239730394
 C        -0.3019119159        2.8340687153        3.6875427212
 C        -0.9561967815        4.2755659753        3.4900844605
 C        -2.2902821295        4.1889990778        2.5726447202
 C        -3.6377748540        4.1014984578        3.2687844356
 C        -1.3181760584        4.7758130361        4.8828165233
 C         0.3629650480        5.0387898794        2.7547885166
 O        -0.3874592734        2.0167495832        2.7584488800
 O        -2.1600968234        4.2017035272        1.3713285881
 C        -4.7585234113        4.0564480920        2.3003087125
 C        -5.1566129404        2.6379255896        1.7006709390
 C        -6.4524272692        2.5007626628        0.9004693557
 C        -6.6582891032        3.6288833297       -0.2171978002
 C        -8.0014620155        3.7783215406       -0.7721072114
 O        -4.4136970965        1.6931218313        1.8908000235
 O        -5.7841633871        4.4630601421       -0.3599924948
 C        -6.4720776329        1.1551067920        0.2084395828
 C        -7.5960319897        2.5806500120        1.9586499495
 H         4.2056045041       -6.1397438551       -7.8342089979
 H         5.8398859601       -6.4853248629       -7.2408737681
 H         4.9495461041       -7.7079394161       -8.0822130801
 H         1.5194549299       -5.6298201457       -3.7571799101
 H         3.1877280758       -5.1930203160       -4.0655284649
 H         0.9772772880       -7.6246687862       -7.6383587853
 H         2.2973194257       -8.7799971163       -7.7556036736
 H         2.4691906451       -7.0864250787       -8.1977435878
 H         2.1608630606       -9.1875556288       -5.1779950786
 H         2.5890623447       -7.7451059112       -4.1708696799
 H         0.9192521343       -7.9024612616       -5.0023975757
 H         0.7515296809       -3.4796132262       -4.5379108537
 H         1.9203168773       -3.6082426258       -3.2594125395
 H         1.7443321781        1.5683804609       -4.8109495615
 H         0.5678143068        0.9199725103       -6.1363234306
 H         3.6665008378       -1.3112934420       -7.1462055458
 H         3.7746567826       -0.1982020201       -5.7411329284
 H         2.7890513553        0.3192731011       -6.9668511769
 H         0.5316382755       -0.8632391601       -7.4615730085
 H         1.1810645807       -2.4482916400       -7.6251666576
 H        -0.0873267659       -2.1081064207       -6.4811576910
 H        -0.3495449669        0.7144521571       -3.2805260107
 H        -1.3248469122        1.4884924262       -4.6013310270
 H         0.8006295038        3.9001951528       -0.7239133778
 H         0.2087101188        3.0754583354        0.5927225340
 H        -1.5693109000        5.3444765321       -1.6925797233
 H        -1.0633740117        5.5835453512       -3.2359809285
 H         0.2178044879        5.0708612279       -2.1248087213
 H        -2.8686376099        3.9358609730       -3.7051508207
 H        -2.7628696186        2.2218968898       -3.3221490798
 H        -3.2292259947        3.4159090571       -2.0850063246
 H         0.9735928276        0.9872202347       -0.8540457489
 H         2.0602403617        2.2268361798       -1.7220955693
 H         3.3419168883       -1.4974062786        2.5429799720
 H         2.2432913757       -0.0200649131        2.6175755817
 H         5.0659725613       -0.4438231924       -0.7036898625
 H         5.2084819189        1.2853561991       -0.9496437532
 H         3.9462554979        0.2042094805       -1.8248190687
 H         4.8348979907        2.2132446616        1.6005433169
 H         4.1084585592        0.9465345289        2.5871836621
 H         5.5014169322        0.4748499688        1.5563991481
 H         1.3418747580       -2.5419594227        3.1540127214
 H         1.7988611771       -2.9390167455        1.5042725732
 H        -3.8747746018       -2.9172977473        3.4139827361
 H        -2.3527275501       -3.5670631457        4.1704427684
 H        -1.3539827586       -1.9481178415       -0.3586237336
 H        -2.8873963783       -1.5139951853        0.5185797233
 H        -2.5414227252       -3.2274697924        0.3194158100
 H        -1.8785132531       -4.4471712117        2.1425440998
 H        -0.3548478802       -4.3834961947        1.1875691188
 H        -0.4129611813       -4.1099355467        2.9044900902
 H        -3.3722346232       -0.6995203876        4.6145430822
 H        -4.0860200327       -1.8771062510        5.5973904664
 H         0.9611129997        0.6609622589        6.2467831108
 H         0.1189872139        0.2298248481        4.7606561481
 H        -4.0447058501        0.4521544649        6.6769011220
 H        -3.0516116022        1.0517582166        8.0956003460
 H        -3.8034381812       -0.4284858501        8.2261041279
 H        -0.5997063503       -1.7878768382        8.0233510374
 H        -0.2439228070       -0.0250495229        8.4517123975
 H        -1.6191342244       -0.5762159401        9.1401760425
 H         1.6052237016        2.3441181417        4.6943240345
 H         0.4824041817        3.1306950326        5.8344553458
 H        -3.6610786173        3.2358595089        3.8652086159
 H        -3.7818890114        4.9820127180        3.9555454332
 H        -1.9326429573        5.7027113886        4.8664740754
 H        -0.3388485213        4.9662410453        5.3808657524
 H        -1.7311102057        4.0666701691        5.6010472651
 H         0.0633707796        5.6011400763        1.8017880680
 H         0.7627247651        5.6779387076        3.5148194688
 H         1.0952182010        4.2802756152        2.3755061341
 H        -5.6115771825        4.2525586721        3.0259051295
 H        -4.7445960868        4.8580855542        1.6345589190
 H        -7.9516926333        3.8050181153       -1.8574283257
 H        -8.7627833924        2.9836295897       -0.4559729532
 H        -8.3333128169        4.7560540333       -0.4178189752
 H        -7.3880499773        0.6084100147        0.0253337532
 H        -5.9771966638        0.4179547518        0.8734087340
 H        -6.0068357867        1.2930102195       -0.7220150883
 H        -7.3047057442        3.4159859743        2.5020779072
 H        -8.5947468631        2.6630053578        1.5656497701
 H        -7.4744735345        1.7870565102        2.7239046548
 Na       -2.0551040105        1.3203618990        1.2699248461
