155

 C       -10.1557280540       -3.5729310239        2.0182677189
 C        -9.0853235191       -2.4582515358        2.2783786402
 C        -7.9784587304       -2.0491031374        1.2076078137
 C        -6.7584271999       -2.8844598941        1.4372184043
 C        -6.1611551036       -2.9319319662        2.9070668270
 C        -8.5887701397       -2.1382539388       -0.2161605126
 C        -7.6038151336       -0.5359401012        1.5804146768
 O        -9.0945269698       -1.8556087767        3.3282074503
 O        -6.3785453027       -3.6539215281        0.5510030981
 C        -4.8350427488       -3.6976365015        2.8850526630
 C        -3.4896726910       -2.9069498176        2.6152842057
 C        -2.1865113555       -3.7533758949        2.3210117425
 C        -2.0405489337       -4.0657112340        0.7447967481
 C        -3.2410009354       -3.5949483572       -0.1830281167
 O        -3.5215013214       -1.7259653299        2.6275543295
 O        -1.1203752002       -4.6940927055        0.2767062349
 C        -0.8883546323       -3.1961252484        2.9292962336
 C        -2.3757143881       -5.1577237751        2.8143491569
 C        -3.2436043350       -3.5153035752       -1.6671005041
 C        -2.3669627765       -2.3307488698       -2.1766404986
 C        -1.9153249042       -2.1262953929       -3.7668481843
 C        -2.1587059895       -0.6481451295       -4.2549590073
 C        -2.7487758811       -0.5318332409       -5.6937082887
 C        -0.3634555746       -2.1094158874       -3.8318900776
 C        -2.5208058201       -3.2440020829       -4.6059551656
 O        -2.1855131497       -1.4398211779       -1.3694244026
 O        -1.6283182528        0.3496752998       -3.8088744918
 C        -3.8274529070        0.6653121756       -5.7567263927
 C        -4.8907451570        0.2520789303       -4.8255532362
 C        -6.1662999233        1.1156444911       -4.8223849952
 C        -6.0477973654        2.0855751488       -3.5006936869
 C        -5.9520337869        1.4265537401       -2.0437526521
 O        -4.8779061396       -0.7642950272       -4.1456849231
 O        -5.8861318222        3.2859862012       -3.5249648332
 C        -6.2696098447        1.9349815793       -6.1179549964
 C        -7.5091479873        0.3261139653       -4.5998616923
 C        -5.3425008290        2.4365135446       -0.9081046673
 C        -3.9679299048        1.9333520671       -0.4016966148
 C        -3.3973117057        2.3273425942        0.9683867754
 C        -1.8483214615        2.4764996110        0.7993490276
 C        -1.1722854686        3.8027514868        0.3573215180
 C        -3.8654710426        3.7416908721        1.2690358859
 C        -3.8985328277        1.3511092585        2.0095966188
 O        -3.2342279268        1.2539818056       -1.1585640154
 O        -1.0995189588        1.5294566001        1.0148441911
 C         0.3384399741        3.5959088856        0.3260860744
 C         0.8805992936        2.6604355612       -0.7795707850
 C         2.3204869003        2.1522237859       -0.6966618115
 C         2.2346811885        0.5438844220       -0.6030015330
 C         3.4167645112       -0.2399497287       -0.0650709753
 O         0.2017237385        2.6340316355       -1.8058771137
 O         1.1837095336       -0.0581286694       -0.6186181444
 C         3.0266784072        2.5413676440       -1.9023495969
 C         3.0786840389        2.7149041960        0.5479371701
 C         4.8684977529        0.1170055582       -0.4309841929
 C         5.8655926194       -1.0210887117       -0.1354408100
 C         7.5264627751       -0.6780502703       -0.3041241422
 C         7.7964833669        0.5109540609        0.5392906467
 C         8.6560488082        0.5359134307        1.8145479733
 C         8.2983259912       -1.8764632029        0.0027940041
 C         7.8333815149       -0.3127096237       -1.7924959883
 O         5.5559717635       -2.1500928344        0.2761440292
 O         7.3256586915        1.5527358995        0.1108697678
 C         9.0804727823        1.9570403922        2.2630137431
 C        10.0128999806        1.7997932755        3.4296871497
 C        10.3323817934        2.9523996061        4.4180187237
 C        11.2580565206        3.7780089743        3.5320109883
 C        12.8083066208        3.9335520040        3.7473893054
 O        10.5366602003        0.7138183444        3.6116669540
 O        10.8121346106        4.3078810579        2.5153082442
 C         9.1039710737        3.7972824683        4.7814684082
 C        11.0258034795        2.3793353399        5.6781459929
 H        -9.9602263079       -4.4609918142        1.4276223475
 H       -10.6092554208       -3.8196178311        2.9931368911
 H       -10.9574736520       -3.1119826956        1.4282464203
 H        -6.0796524387       -1.9866825575        3.3903271380
 H        -6.9219784134       -3.4130500386        3.4951025779
 H        -7.9178301682       -1.6897324634       -0.9022469723
 H        -9.5225259472       -1.5598959455       -0.1370362793
 H        -8.7652681435       -3.0561264053       -0.6718868203
 H        -6.7195017058       -0.1135250389        0.9961430435
 H        -8.5506355400        0.0467417218        1.3882710481
 H        -7.2082774083       -0.4243479900        2.6741939777
 H        -4.6299624096       -4.1128579141        3.8803423609
 H        -4.8955076211       -4.6231984187        2.3409839127
 H        -4.0064525526       -4.4004951558        0.1346080525
 H        -3.5491460646       -2.7294596698        0.2636296851
 H        -0.3924090000       -4.0657832905        3.2856110972
 H        -1.2489607318       -2.6230233403        3.8277081885
 H        -0.3338522022       -2.6254964589        2.1520319105
 H        -1.4812576346       -5.6607219478        2.5850750962
 H        -2.4778649929       -5.3056116914        3.8615008993
 H        -3.2289613621       -5.6717496805        2.3093838316
 H        -4.2243237513       -3.2988020958       -2.0225729796
 H        -2.8855551396       -4.4219769955       -2.1370556392
 H        -1.9486778673       -0.4835215218       -6.3759379315
 H        -3.2862133270       -1.4006352432       -6.0503771305
 H        -0.0185767637       -1.9520397244       -4.8780133103
 H        -0.1009900420       -3.0782069298       -3.4225094250
 H        -0.0421778116       -1.3043605756       -3.1488885134
 H        -2.0764686079       -4.2680421016       -4.4168641282
 H        -3.5789943599       -3.2783607947       -4.4842440130
 H        -2.4034046835       -3.1999151081       -5.6862914641
 H        -3.5989935417        1.7498311579       -5.4082569395
 H        -4.3103300172        0.6483558584       -6.7411841222
 H        -6.9973022168        1.2952378284       -1.6932347830
 H        -5.6219247525        0.3271336545       -1.9264373246
 H        -5.4359251297        2.5123142142       -6.4136896591
 H        -7.0129116636        2.7055297422       -5.9141633097
 H        -6.5891931213        1.3482340957       -6.9512393620
 H        -8.3506084805        0.9961246939       -4.3399670369
 H        -7.8512388519       -0.1395349304       -5.5043991957
 H        -7.2645068827       -0.4281818048       -3.8285701509
 H        -6.1141614164        2.5501882445       -0.1449298817
 H        -5.3035224590        3.4138715596       -1.4166531324
 H        -1.4414734966        4.2029914275       -0.5656931498
 H        -1.5185052684        4.5635314808        1.0896470254
 H        -3.9050343571        4.3270149999        0.3694713861
 H        -3.1803442248        4.2622073402        1.9636118453
 H        -4.8782738449        3.7383774235        1.8100740478
 H        -3.9399809711        2.0064734704        2.9518131152
 H        -4.9841673318        1.1552466128        1.9598945279
 H        -3.2810443501        0.4453522367        1.9860335767
 H         0.7266164941        4.6218519205        0.0027671652
 H         0.8074792728        3.3642046179        1.2444685202
 H         3.3020593072       -0.2415849743        0.9834303338
 H         3.4487298609       -1.3162873120       -0.4298505766
 H         3.2333517460        3.6190886404       -1.9277869738
 H         2.5813904750        2.2028621051       -2.9082708760
 H         4.0461490431        2.1080346448       -1.7980564842
 H         4.1934947693        2.5664879243        0.3921281245
 H         2.8661616407        3.8125784738        0.5555459159
 H         2.7218569573        2.1509972375        1.5008170281
 H         5.2653108264        1.0029193119       -0.0663088045
 H         4.9217948881        0.2455030521       -1.5461851720
 H         8.0756559237       -0.0488106165        2.6088257449
 H         9.6305415156        0.0026759392        1.6936699811
 H         7.9136253476       -2.4699732124        0.8331692415
 H         9.3748540399       -1.6214696569        0.2197517463
 H         8.3434417977       -2.5979214783       -0.8759077276
 H         8.8611836970       -0.2440037811       -2.0806758297
 H         7.4403934251       -1.0054357114       -2.5005959747
 H         7.3211319163        0.7142655807       -1.9209027366
 H         9.6238104957        2.4245552468        1.4113796306
 H         8.2168889710        2.5001287131        2.6659377850
 H        13.0412928068        4.1168320927        4.8093714666
 H        13.2661583332        2.9862197495        3.4663936738
 H        13.0932566175        4.7737469520        3.1179504281
 H         9.1787958453        4.1254025174        5.8042362100
 H         8.2463134797        3.1136629120        4.7556685939
 H         8.9821596322        4.5873281714        4.0165335360
 H        11.4730492764        3.2401827359        6.2305425569
 H        10.3416489387        1.8871998782        6.3290316569
 H        11.8393351354        1.7506154664        5.2597439571
 Na       -0.9540512977        0.2679430946       -1.4512024550
