155

 C         5.2721438569       -7.6149979843       -7.0886905079
 C         4.1259416324       -7.3986064804       -6.1042581452
 C         2.7225010845       -6.9329836370       -6.5610517366
 C         2.4755588898       -5.4707498615       -6.0223854486
 C         2.7794276912       -5.1707459115       -4.5616306756
 C         2.6546393738       -6.9888684124       -8.1306807695
 C         1.6454826825       -7.7947663541       -5.8272071921
 O         4.2886688212       -7.5258867600       -4.9027392614
 O         1.8323378841       -4.7515807623       -6.7146591431
 C         2.3101965530       -3.7785658658       -4.1480012213
 C         3.1263980623       -2.7489201137       -4.9269371125
 C         2.4248926223       -1.4566783125       -5.4374000578
 C         1.8215030800       -0.6917289570       -4.1844982420
 C         1.4738987257        0.7657632724       -4.4439378772
 O         4.2839195830       -2.9184703617       -5.1687426865
 O         1.4195324835       -1.2937592323       -3.2091743280
 C         3.5753353716       -0.6088400859       -6.2336144481
 C         1.1660008039       -1.7556580244       -6.3539560779
 C         0.1949765212        1.2503049657       -3.8992990474
 C         0.1114006295        2.7407470103       -3.6489429913
 C        -1.2431310246        3.2902092147       -2.9540457169
 C        -1.1080498049        2.6947780430       -1.3936874248
 C         0.0323221286        3.1156478586       -0.4828687289
 C        -1.2845041899        4.8050786528       -2.8741468762
 C        -2.5755782692        2.8798247845       -3.6275448211
 O         0.9728253203        3.4865293996       -4.0401233464
 O        -1.9401005166        1.7877251012       -1.1504118271
 C         1.1567174642        2.0065742669       -0.5284700253
 C         2.2318414342        2.1323363538        0.4668152976
 C         3.3421918052        0.9189699968        0.2605550608
 C         2.6599163997       -0.3682322117        0.7839786104
 C         2.4199935861       -0.7907299379        2.2597856466
 O         2.2546577853        3.0025328010        1.3588403544
 O         2.3173899982       -1.2498617167        0.0171573018
 C         3.7128098041        0.7764857428       -1.2917707510
 C         4.6664139333        1.1989515334        1.1015525977
 C         1.3035740321       -1.7159395507        2.4919979630
 C         0.0123362334       -1.1545508942        1.8634214531
 C        -1.3164412117       -2.1119878917        1.7214080827
 C        -2.3910806454       -1.6257134718        2.7667755022
 C        -2.8468997936       -2.3666658462        3.9771122846
 C        -1.9957737629       -1.9282479049        0.3310567560
 C        -0.9416789429       -3.5641711824        1.8729588876
 O        -0.0943542572       -0.0172892925        1.4781922114
 O        -2.9927698034       -0.5570644537        2.5727599044
 C        -3.0514752713       -1.6610620499        5.3059514309
 C        -1.6438632435       -1.6491489147        6.0148185184
 C        -1.5677587043       -0.6747935051        7.3152721275
 C        -1.3825579303        0.7833934057        6.5596281083
 C        -0.0532064652        0.9662950997        5.8274311951
 O        -0.7589698084       -2.4126229797        5.6885499285
 O        -2.3390161598        1.5457867028        6.4975091112
 C        -2.9120065655       -0.7477028019        8.1284896911
 C        -0.2743951084       -0.9796964906        8.1752414187
 C         0.0482807652        2.4045596769        5.3860897676
 C        -0.5483985937        2.8344828193        3.9614358394
 C        -1.1214878438        4.3438960037        3.7680606556
 C        -2.2413818433        4.1150664802        2.7639159341
 C        -3.6506003764        3.7626729088        3.2468336284
 C        -1.4958261827        5.0856487279        5.0857139908
 C         0.1163111548        5.1527671529        3.1558775825
 O        -0.6092304425        1.9975226810        3.0867005116
 O        -1.8886880155        3.8633957299        1.5786014306
 C        -4.7231082668        3.9272315799        2.1247666952
 C        -5.0419815793        2.6918101609        1.2907561374
 C        -6.5573957944        2.4888543888        0.6382801679
 C        -6.7008324497        3.5664597459       -0.5660517764
 C        -8.1143228282        3.7304581612       -1.1474364037
 O        -4.2918033787        1.7032582952        1.1967032814
 O        -5.7568076083        4.0666656194       -1.1449942354
 C        -6.6155592315        1.0879257566        0.1133807577
 C        -7.6174183663        2.6840583950        1.6267187176
 H         5.7117324653       -6.7964294138       -7.5631755467
 H         6.1266322569       -8.0252989076       -6.5625638472
 H         5.1039105570       -8.5046294013       -7.7562099394
 H         2.3460873029       -5.9803648142       -3.9573612040
 H         3.8102304187       -5.2614782122       -4.3358786382
 H         1.8330559729       -6.4145397480       -8.5669727344
 H         2.6102405185       -7.9635582244       -8.5207796925
 H         3.5334644171       -6.5415690725       -8.4494715042
 H         0.8604977653       -7.1241359890       -5.4096024859
 H         1.1465393222       -8.4710049859       -6.5468539177
 H         2.0899029504       -8.3806331953       -5.0060558762
 H         1.2043755724       -3.5905871380       -4.1299590211
 H         2.6887155820       -3.5323757576       -3.1398148660
 H         2.3558993366        1.3758897535       -4.0107710285
 H         1.4972232079        0.7554377700       -5.5503780217
 H         3.7375528850       -1.0333234141       -7.1938696652
 H         4.4914826700       -0.8208099096       -5.5897074265
 H         3.4749302252        0.4940793739       -6.2287562254
 H         0.9286023050       -0.8943256623       -6.9634306832
 H         1.4447238617       -2.4068546998       -7.2360804988
 H         0.2866691502       -2.2470937113       -5.9668942144
 H        -0.1788210458        0.5990342744       -3.1050306667
 H        -0.5650164767        1.0924844885       -4.5957154882
 H         0.4994446320        4.0670107539       -0.7719608197
 H        -0.2452072329        3.1052968723        0.5373885727
 H        -2.1717724182        5.1250242708       -2.5165444885
 H        -1.2107859471        5.1285637925       -3.9102130358
 H        -0.4899117525        5.2406350812       -2.2245556223
 H        -2.7401805966        3.7584558157       -4.3093962087
 H        -2.5390877143        1.9301499623       -4.1213596814
 H        -3.3571126894        2.7778800713       -2.9030999449
 H         0.7363437698        0.9586646231       -0.3267477189
 H         1.6270716261        2.0217773508       -1.4799594273
 H         3.4110823202       -1.1656964051        2.6660866674
 H         2.2806749760        0.1418587134        2.7704702771
 H         4.6271397569        0.2432996863       -1.3770124440
 H         3.7977862420        1.6883381664       -1.9228538754
 H         2.8942221298        0.1955369266       -1.7435383897
 H         5.1266808785        1.9506513350        0.4209706689
 H         4.5385431239        1.5175739317        2.1323644037
 H         5.2789830023        0.2800836196        1.2001861562
 H         1.1651739636       -1.8334606626        3.6184772480
 H         1.5954106033       -2.7372462027        2.1674476070
 H        -3.8508835667       -2.8423436545        3.7999956515
 H        -2.1483527498       -3.1790401739        4.1977360029
 H        -1.3187481119       -2.3304229261       -0.4541880219
 H        -2.1105178246       -0.8586750516        0.2856817522
 H        -2.9290866786       -2.5159665875        0.3637054115
 H        -1.8097487765       -4.1670617753        1.7270052370
 H        -0.3319309566       -3.8677758604        1.0993408613
 H        -0.3476870747       -3.7833512401        2.8031034070
 H        -3.4586128903       -0.6460436506        5.1376829376
 H        -3.8008245915       -2.1852379322        5.8339650682
 H         0.7876743955        0.5545148683        6.3697783022
 H        -0.1142219316        0.3759038969        4.8650962498
 H        -3.8506765101       -0.5463442029        7.6869384990
 H        -2.8468665636        0.0971397842        8.8487400400
 H        -2.9500275417       -1.6518122550        8.6965611312
 H         0.0048766988       -1.9677938034        7.8380187127
 H         0.5683219365       -0.4020459631        7.7481534846
 H        -0.4658868230       -0.8419444874        9.2347315853
 H         1.0799843507        2.8253648813        5.3191657818
 H        -0.4168130967        2.9154557859        6.3137793696
 H        -3.7034745285        2.7496863403        3.7208914312
 H        -3.8983640749        4.4366247367        4.0088490240
 H        -2.2951053680        5.8346663394        4.8521442506
 H        -0.7193628738        5.7861740051        5.3774527569
 H        -1.9821120290        4.4537340609        5.8292703188
 H         0.0475266693        6.1970724418        3.4825050489
 H         1.0544115045        4.6969986955        3.5113542847
 H         0.1663669566        5.0240493830        2.0575901535
 H        -5.6566085375        4.2249428374        2.5309713729
 H        -4.3162536698        4.7602791277        1.4611865548
 H        -7.9431011448        3.7546561395       -2.2107402816
 H        -8.7315934012        3.0050180577       -0.7301816783
 H        -8.5796748122        4.6913679735       -1.0057007509
 H        -7.6258875033        1.0242489950       -0.3128469410
 H        -6.4213750426        0.3433805018        0.8238674497
 H        -5.8601798972        0.8862408594       -0.6886530317
 H        -7.3637664369        3.5979373641        2.2236347069
 H        -8.5379211308        2.8631286898        1.1202491470
 H        -7.7595869153        1.8125431457        2.1476479952
 Na       -2.1183044037        1.1929800621        0.9686698866
