155

 C         5.2044849451       -7.9503333751       -6.9637475066
 C         4.0338173900       -7.6288939949       -6.1053880930
 C         2.8808068598       -6.9659402061       -6.7262431377
 C         2.5482106692       -5.5363056836       -5.9762060457
 C         2.9926692412       -5.1846695936       -4.4763739369
 C         3.0957723554       -6.5485181829       -8.2780506169
 C         1.7878984352       -7.9949852275       -6.5819470455
 O         3.9873309028       -7.9103176463       -4.9286623493
 O         2.1520751493       -4.6232560916       -6.6974255159
 C         2.6290413632       -3.7634554289       -4.0214544034
 C         3.4263802920       -2.6504462999       -4.7159635345
 C         2.6659165097       -1.4696907586       -5.4769599112
 C         1.9815549162       -0.5780844644       -4.3059509174
 C         1.7404243630        0.9531466317       -4.5027046953
 O         4.6495997277       -2.6342615615       -4.7976064394
 O         1.3074107268       -1.1206856461       -3.4738202151
 C         3.8271464882       -0.5746146678       -5.9851243582
 C         1.6932087467       -1.7708872368       -6.4913948797
 C         0.2957378734        1.2903707994       -4.3223589178
 C         0.1003614760        2.7745304090       -3.9228434362
 C        -1.2664616447        3.0885069178       -3.1100734791
 C        -1.0929589335        2.5392912732       -1.5842931970
 C        -0.0098586215        3.2335568172       -0.7391587861
 C        -1.3984048117        4.6787190731       -3.1892256821
 C        -2.6024465464        2.5673990075       -3.7069418651
 O         0.8147119627        3.6531408813       -4.3348432240
 O        -1.6790131707        1.5344244552       -1.1197109387
 C         1.3191031388        2.3571392795       -0.9730127597
 C         2.0385292533        2.0397581309        0.3243984537
 C         3.1765286464        0.9251021857        0.3807597152
 C         2.5504624329       -0.3186300306        0.9104087374
 C         2.1401226433       -0.3500508769        2.3727697224
 O         1.7287777763        2.5629354868        1.4024502725
 O         2.4264139732       -1.3274050831        0.2641252251
 C         3.6615110173        0.5773570424       -1.1234452035
 C         4.3963317833        1.2863346268        1.2150224823
 C         1.1972001843       -1.4858105605        2.6392102626
 C        -0.1020423812       -1.0883089002        1.8830446740
 C        -1.3299945340       -2.1287993266        1.8272177828
 C        -2.3711379325       -1.5958510475        2.8282990161
 C        -2.8901950800       -2.4775214294        3.9336041060
 C        -1.9836373714       -2.0035923053        0.3956381246
 C        -0.8305038300       -3.5725625570        1.9286381624
 O        -0.2774147943       -0.0517610313        1.3042174346
 O        -2.7938809637       -0.4262416051        2.7758250750
 C        -2.9042041830       -2.0195209077        5.3584099321
 C        -1.4286300348       -1.6986509992        5.9340790367
 C        -1.3646398496       -0.9445057229        7.2672526755
 C        -1.2858422172        0.6174823479        6.7177213497
 C         0.0591314991        1.2596059801        6.3813415619
 O        -0.3812033449       -1.8479805574        5.3088395242
 O        -2.3789861300        1.1874587091        6.6043786035
 C        -2.5303944333       -1.1968499471        8.1623008440
 C         0.0157784796       -1.2816376458        8.0475779826
 C        -0.2096003100        2.6396583106        5.7229437633
 C        -1.0921698556        2.6762899569        4.4756777677
 C        -1.4545680876        4.2038390641        4.0276047989
 C        -2.4827044652        4.1821914828        2.8167255527
 C        -3.9425131609        3.6003600922        3.1118546765
 C        -2.0950347477        5.0294386486        5.1587700021
 C        -0.1697023252        4.8437659977        3.5289445541
 O        -1.4137193495        1.6633847742        3.8608629900
 O        -2.1588739532        4.6127791955        1.6932550007
 C        -4.9078918099        3.9852967884        1.9392143432
 C        -5.1583092852        2.8587249614        0.9997535986
 C        -6.5407266104        2.5275734802        0.4897971271
 C        -6.6467534134        3.4464257090       -0.8221127700
 C        -8.0142486510        3.7133753560       -1.4415161360
 O        -4.2795979290        2.1249012830        0.6337496355
 O        -5.6126535806        3.9153454384       -1.2467124959
 C        -6.7749082252        0.9084591844        0.1707741689
 C        -7.6808522190        2.9095149703        1.5593949161
 H         5.4875517411       -7.1228494416       -7.5625956870
 H         6.1534693718       -8.2806583785       -6.6355406111
 H         4.8623734083       -8.7762033741       -7.7124599485
 H         2.6340538201       -5.8748665742       -3.6614123255
 H         4.0667337702       -5.2961075873       -4.4371533072
 H         2.1657644757       -6.1336186264       -8.7104887611
 H         3.3033862630       -7.4088511908       -8.9116013318
 H         3.9225111986       -5.9165111347       -8.4393792663
 H         0.9432347572       -7.7365990772       -7.1898925522
 H         2.1804514870       -8.9633331164       -6.9301544748
 H         1.5264472214       -8.2021542139       -5.5672966468
 H         1.5516080514       -3.5390047461       -4.0912085157
 H         2.9532570228       -3.8017928941       -2.9092179871
 H         2.3391398676        1.4885149495       -3.6657691169
 H         2.2374891683        1.3725951855       -5.3825348564
 H         4.7352419875       -1.0599638622       -6.1844156912
 H         4.0674793314       -0.0572076386       -5.0335083928
 H         3.6062948943        0.0675162845       -6.8129296195
 H         1.3048345036       -0.8288472698       -6.8323007816
 H         2.0653325098       -2.2864032226       -7.3847984690
 H         0.8062190245       -2.3567157712       -6.3106833446
 H        -0.2190960162        0.5983646781       -3.6278454744
 H        -0.2701441782        1.1296008543       -5.1889161518
 H         0.2397792381        4.2242376288       -1.1306742460
 H        -0.2396945102        3.2295827873        0.3057851729
 H        -2.0724188852        4.9981796215       -2.4392787609
 H        -1.5337833856        4.9448491671       -4.2214436852
 H        -0.4016945147        5.1503322253       -2.9221407553
 H        -2.4584858064        2.2305366098       -4.7359167775
 H        -2.8202518864        1.7124399442       -3.1185140719
 H        -3.3386118355        3.3324285355       -3.5115542052
 H         1.0898224495        1.3172591820       -1.4605178657
 H         2.0624897751        2.8434021674       -1.6169245749
 H         3.0050930011       -0.2566970280        3.0187839894
 H         1.6304750073        0.5593321670        2.6057492939
 H         4.6475455610        0.0321714714       -1.0389298569
 H         3.7175905636        1.5496054742       -1.7708502017
 H         2.8687334143       -0.0701553429       -1.6038975624
 H         4.5534358518        2.3460156258        0.9763894054
 H         4.2718185546        1.1538652071        2.2818925926
 H         5.2737803475        0.8413261424        0.7534541892
 H         1.1540412403       -1.6485460927        3.7628719276
 H         1.5748479534       -2.4163801937        2.1977963568
 H        -3.9578410392       -2.7615479532        3.5824831023
 H        -2.3592476336       -3.4375081164        4.0120366693
 H        -1.2319863418       -2.2026416921       -0.3641238637
 H        -2.5755675951       -1.0815089432        0.4128353432
 H        -2.6126857619       -2.8746730383        0.2775466257
 H        -1.7106718286       -4.2430751656        1.8248778240
 H        -0.1731798029       -3.7103658765        1.1305958000
 H        -0.3659203684       -3.8564193156        2.8983494539
 H        -3.5264906157       -1.1394065574        5.4544200185
 H        -3.3569610966       -2.7849486162        5.9367854518
 H         0.6636665687        1.5343844753        7.2422245225
 H         0.6701612573        0.5948486657        5.7264807578
 H        -3.3870556632       -0.5094777044        7.8762611674
 H        -2.2324483048       -0.8082670972        9.1319731069
 H        -2.9719699264       -2.2060826272        8.2569431741
 H        -0.1637723553       -1.9465134737        8.9619473126
 H         0.5345496508       -1.7531196859        7.2242213965
 H         0.5609942420       -0.4199784236        8.4201331245
 H         0.8179729050        3.0753680499        5.6385246085
 H        -0.6271666437        3.2981846333        6.5433193080
 H        -3.9976020574        2.5122739002        3.2769625781
 H        -4.2660103566        4.0489953154        3.9922727771
 H        -2.6565794611        5.8534671889        4.6309641044
 H        -1.2707143842        5.4246867612        5.7909525531
 H        -2.8495370067        4.4834123274        5.7186858957
 H        -0.3893569804        5.8806506398        3.1092296027
 H         0.5367815442        4.9695337615        4.3342603267
 H         0.3619140363        4.1462613911        2.8269370534
 H        -5.7814692351        4.4701995692        2.2739445989
 H        -4.3236186321        4.7764357001        1.4072070457
 H        -7.9795487834        4.7597383503       -1.7240235566
 H        -8.1273448536        2.9626528585       -2.2859884078
 H        -8.8456157112        3.5017183066       -0.7325958198
 H        -7.7166758174        0.8415858827       -0.3906030041
 H        -6.6036398416        0.3416200621        1.0388781521
 H        -5.9471735571        0.5146333187       -0.4358401349
 H        -8.0029579977        3.9425201945        1.3493965097
 H        -8.5475263688        2.2688401493        1.5271334339
 H        -7.2437864874        2.8616535048        2.5409375695
 Na       -2.0029057918        1.6400900886        1.4892078946
