155

 C         5.3544630584       -8.2090718731       -6.6653810286
 C         4.1482461784       -7.7132431518       -5.9877681258
 C         3.1407337294       -6.7628725047       -6.8504410895
 C         2.8276878834       -5.3685529339       -6.3602682467
 C         3.1856199927       -5.0621991587       -4.8988609941
 C         3.6326627491       -6.7899137802       -8.2911997384
 C         1.8120210559       -7.5070779481       -6.7740974845
 O         3.8371952193       -7.9830172595       -4.8530769267
 O         2.0368841391       -4.6588419355       -7.0287036603
 C         2.5906593891       -3.8121986504       -4.3796102831
 C         3.5047366833       -2.6252727309       -4.6915820287
 C         3.0697895182       -1.3987249088       -5.4637162131
 C         2.0831440054       -0.6017704845       -4.5347970010
 C         1.5119476502        0.7970832605       -4.9593864473
 O         4.7115900407       -2.6742504654       -4.3977948850
 O         1.6343060872       -0.9984581991       -3.4792477665
 C         4.3232921074       -0.4498507245       -5.6878019674
 C         2.3618194809       -1.8879279765       -6.7877279814
 C         0.1239323931        1.0685818477       -4.3038707070
 C        -0.0939458555        2.6285253061       -3.8992907060
 C        -1.3986784425        3.0254730340       -3.0557904961
 C        -1.0742463906        2.8555383260       -1.4722023016
 C         0.2581343954        3.3662692608       -0.9875415107
 C        -1.8585500570        4.5103774702       -3.3302955616
 C        -2.5991988603        2.0412734124       -3.3632853181
 O         0.6993531622        3.5261749518       -4.0656178335
 O        -1.8965002291        2.3646261296       -0.6926269658
 C         1.4488156632        2.2648902550       -1.1137001265
 C         2.0613345239        1.9053667274        0.2336597299
 C         3.3621354349        1.0286048004        0.4239859092
 C         2.8263808608       -0.3412018047        0.9383741642
 C         2.2987320106       -0.2689777345        2.4832801662
 O         1.4574920864        2.1883628658        1.2460113854
 O         2.7366179537       -1.3126079115        0.2441266370
 C         4.1613288737        0.6889690963       -0.8634831631
 C         4.1876756946        1.8198954084        1.4012045391
 C         1.0425041800       -1.1826771626        2.7002728678
 C        -0.1904883275       -0.9222765082        1.8338976362
 C        -1.2951140619       -1.9443743929        1.8210968933
 C        -2.4289792572       -1.5174652548        2.8732105106
 C        -2.9423035717       -2.5406551068        3.8649187296
 C        -2.0094065233       -1.9116684955        0.4426767790
 C        -0.7416520009       -3.4736104058        1.9732431312
 O        -0.3009626936        0.1074711011        1.2706235416
 O        -2.8181605498       -0.3680580628        2.9330095460
 C        -2.9911317750       -1.9093626288        5.2575334793
 C        -1.5832397019       -1.7865181896        5.7908194720
 C        -1.2734565697       -1.1065250283        7.1703822071
 C        -1.4119680150        0.5198411241        6.9831043504
 C        -0.2266257978        1.3471129292        6.4544316291
 O        -0.6170320510       -2.0265242399        5.0894506737
 O        -2.4844564376        1.0575517150        7.1997881442
 C        -2.2380259608       -1.4827841237        8.2752033809
 C         0.2121976860       -1.3883360907        7.4590482384
 C        -0.5678500164        2.8176232227        6.1242067065
 C        -1.3850336084        2.8426997632        4.7842746835
 C        -1.6333318761        4.2933477840        4.1427960876
 C        -2.5288023042        4.0462342177        2.9369489040
 C        -4.1016657952        3.7025968779        3.1116934142
 C        -2.2941466183        5.1974308165        5.3176129795
 C        -0.2452235664        5.0008691175        3.8001981200
 O        -1.6367833214        1.8502744981        4.1209227519
 O        -2.0864474823        4.2074710404        1.8194435362
 C        -4.9028638148        3.9583902779        1.7891664206
 C        -5.1911900712        2.6159824892        1.1069580259
 C        -6.6968889845        2.5840196293        0.2939655135
 C        -6.6515804917        3.4072057128       -1.1194279845
 C        -7.9940722890        3.4299221823       -1.8069511224
 O        -4.4839149206        1.6663094008        1.1024054186
 O        -5.6907896258        3.9827435888       -1.6048377110
 C        -6.8444590445        1.0952256148       -0.2585533825
 C        -7.8548999209        2.9625441736        1.2683154595
 H         6.1316758343       -7.4877387433       -6.8318067486
 H         5.8479345477       -9.0298099275       -6.1891136156
 H         5.1738457831       -8.5055208031       -7.7346069540
 H         2.7362339907       -5.9607937079       -4.3495929503
 H         4.2598574284       -5.0747045233       -4.7370038334
 H         3.0694307657       -6.0603358387       -8.9171721761
 H         3.5633551941       -7.7870373820       -8.8612126857
 H         4.6780567347       -6.3906065123       -8.3719844481
 H         1.0848515538       -6.8083656715       -7.1057541208
 H         1.7196071336       -8.2848511843       -7.5571794337
 H         1.5283323714       -7.8910963707       -5.8111422738
 H         1.5859291854       -3.6522147728       -4.7550111165
 H         2.6475987176       -3.8516201885       -3.1975764613
 H         2.2058222285        1.5814199683       -4.5840190236
 H         1.5187243909        1.0804266455       -5.9873585804
 H         4.6016027913       -0.3711851559       -6.7242511571
 H         5.1234897933       -1.0608540478       -5.2873863147
 H         4.2139605982        0.5631950609       -5.3149035233
 H         2.0357491487       -1.0886116777       -7.3948217950
 H         2.9337913228       -2.6040005779       -7.3353322358
 H         1.3756541026       -2.3441087873       -6.6953045297
 H        -0.1382305138        0.4210705023       -3.3980694003
 H        -0.6535725443        0.9484839157       -5.0268085889
 H         0.4894660081        4.2448225502       -1.6345477316
 H         0.0703796129        3.6686862440        0.0413329467
 H        -2.5912872186        4.7778454015       -2.4697372114
 H        -2.3829775526        4.5349383446       -4.2704532779
 H        -1.0133704101        5.2315302230       -3.4424187446
 H        -3.2577809361        2.5517342487       -4.0599642546
 H        -2.2662035819        1.1325266827       -3.7931405856
 H        -3.1182216000        2.0847526021       -2.4075947332
 H         1.1879741449        1.3198250612       -1.7194295384
 H         2.2778182868        2.6865993577       -1.7354647874
 H         3.0666636685       -0.4556312212        3.2012696561
 H         2.0689213900        0.7591665475        2.6408728710
 H         4.9803114752       -0.0598384298       -0.7038640887
 H         4.5342739586        1.5640226436       -1.3954030994
 H         3.4556216693        0.0537415565       -1.3934407134
 H         5.1238932407        1.9960272868        0.9542237618
 H         3.7829165162        2.7865519479        1.6623708872
 H         4.4606460152        1.1877135946        2.2229149961
 H         0.7897489705       -1.2094104416        3.7965719161
 H         1.4115825651       -2.1644332281        2.5041277621
 H        -3.9791934388       -2.9492238911        3.6482107016
 H        -2.3012910316       -3.3869083458        3.9335961977
 H        -1.3355744180       -2.4651002001       -0.2135622772
 H        -1.9866887885       -0.8436396749        0.1675120660
 H        -3.0083814116       -2.2838850043        0.4283056817
 H        -1.5304141285       -4.2744884069        1.8844347906
 H         0.0399268269       -3.5141125699        1.2365749631
 H        -0.2722197053       -3.7099720136        2.9016987384
 H        -3.4732945249       -0.9446484261        5.1855565090
 H        -3.6306848205       -2.4991302158        5.9066687907
 H         0.5473418672        1.3152556339        7.1937323197
 H         0.1526290085        0.9658591595        5.5136415879
 H        -3.3683403267       -1.5131811886        8.0958472754
 H        -1.9543589529       -0.8888466311        9.0874034512
 H        -1.9859631434       -2.4758128911        8.6834081718
 H         0.5216409926       -2.4326666972        7.0638719806
 H         0.7711769522       -0.6335510171        7.0143102888
 H         0.3683620264       -1.3224212413        8.5213964687
 H         0.3223847740        3.4500608843        6.0966454978
 H        -1.0520897951        3.2839163826        6.9737744529
 H        -4.1264036541        2.5884595838        3.2555665362
 H        -4.6428146141        4.1160100141        3.9121549216
 H        -2.2828900531        6.1997471646        4.8895451618
 H        -1.7018975900        5.0261110045        6.1746349858
 H        -3.2260905071        4.8761075064        5.6553503899
 H        -0.3375716017        5.7439528383        2.9906122136
 H         0.1442285341        5.4507787213        4.6389486942
 H         0.4463881852        4.2869451093        3.3584989136
 H        -5.7171940980        4.6330419622        1.9028019952
 H        -4.2906072328        4.5156060098        1.0667534059
 H        -8.6942571673        3.7565759437       -1.0690927659
 H        -7.9637938928        4.2360830781       -2.6323726451
 H        -8.1716420715        2.3746432565       -2.0834979281
 H        -7.8289307733        0.8871249051       -0.7645614711
 H        -6.8220391396        0.5096346281        0.6923274894
 H        -5.9879929432        0.8677457909       -0.8524923229
 H        -7.8334376664        3.9772152420        1.6457469893
 H        -8.8083873016        2.7010824453        0.7783640234
 H        -7.7838179027        2.2517646026        2.1528081392
 Na       -2.1898932072        1.4034020230        1.4930022694
