155

 C       -10.2543304604       -3.4419706182        1.9270702625
 C        -9.1440279159       -2.5403898681        2.3998131978
 C        -8.1093378186       -2.0135089795        1.1906545652
 C        -6.8317379241       -2.8076406719        1.3919446562
 C        -5.9408628876       -2.4730573185        2.6227120036
 C        -8.6616447055       -2.2033413225       -0.1836212265
 C        -7.8843256620       -0.4668419902        1.4064143125
 O        -8.9779118445       -2.1375917450        3.5262550546
 O        -6.4430693047       -3.5452051390        0.5339951774
 C        -4.8875774789       -3.5074859898        2.9281812850
 C        -3.4947952095       -3.0299161417        2.5950562898
 C        -2.3457429772       -3.9398732735        2.2412971584
 C        -2.3494643757       -4.0966338459        0.6518476167
 C        -3.4611183517       -3.4418748158       -0.2484439788
 O        -3.2476939592       -1.8342786790        2.7514913412
 O        -1.4771438838       -4.6751721512        0.1227395381
 C        -1.0210554405       -3.2473275646        2.7045257945
 C        -2.4520359335       -5.3159602377        2.9264956127
 C        -2.9595031375       -3.6304554452       -1.7164996350
 C        -2.2205686672       -2.3634019758       -2.2321804084
 C        -1.8314965493       -2.2756180770       -3.7401802231
 C        -2.1676563040       -0.8454603584       -4.3012103827
 C        -2.8101071359       -0.5707119729       -5.6679539070
 C        -0.2698825235       -2.5403329579       -3.8117374788
 C        -2.5292573221       -3.3674133076       -4.5539032501
 O        -2.0133883622       -1.4632107272       -1.4455269400
 O        -1.8482252538        0.1940944420       -3.6464905864
 C        -3.8734843908        0.4730936864       -5.6766237830
 C        -5.1252728495        0.2533429711       -4.6549874155
 C        -6.3239953542        1.2128342759       -4.6242267506
 C        -6.0402145431        2.1805184537       -3.2268033761
 C        -5.8129925038        1.4537421241       -1.8698086983
 O        -5.2402400948       -0.8543645186       -4.1201492030
 O        -6.1115110079        3.3729585317       -3.2626268652
 C        -6.4157846819        2.3866469401       -5.5853536233
 C        -7.5942533794        0.5025080440       -4.3960948488
 C        -5.2816567996        2.2692221850       -0.6894550280
 C        -3.8560388382        2.0646904549       -0.4094559417
 C        -3.2482570582        2.5538515449        1.0526443137
 C        -1.7475407568        2.4620487606        0.7426544407
 C        -0.9907276562        3.7072231103        0.2437938294
 C        -3.8465233881        3.7679819693        1.5806459617
 C        -3.4685281580        1.3674633172        2.0579045661
 O        -3.1363625390        1.5281702756       -1.1870355312
 O        -1.2108334147        1.3660149328        0.7364829337
 C         0.4879654088        3.5792228605        0.2681875400
 C         1.0140488266        2.6736754340       -0.7588477539
 C         2.4688405459        2.0461531895       -0.5825344741
 C         2.3497722526        0.4256572300       -0.5710731320
 C         3.4556137153       -0.4191557697       -0.0799462418
 O         0.4210050325        2.4212005654       -1.7884277835
 O         1.3320990123       -0.1848140515       -0.8658452644
 C         3.2277200613        2.3335712628       -1.9467534135
 C         3.1083152727        2.5707266812        0.6861159568
 C         4.7852396647        0.0100490652       -0.7323632765
 C         5.9219075250       -1.0181459082       -0.1977237615
 C         7.4404727413       -0.5802629870       -0.3960632623
 C         7.7205906316        0.6954825042        0.5367184657
 C         8.7130505979        0.6083702769        1.7014089318
 C         8.1150984399       -1.8584581489        0.2069019430
 C         7.6464775524       -0.3666113212       -1.8815194151
 O         5.5210455588       -2.0279702629        0.3399198747
 O         7.2680660066        1.7539703830        0.0967544460
 C         8.9563829647        1.9426916319        2.3919955105
 C         9.9831397813        1.7176766823        3.5265266267
 C        10.4321243890        3.0000651328        4.2388561575
 C        11.3983926149        3.8363552223        3.2370948156
 C        12.8789106092        3.6410719855        3.3454988726
 O        10.3610378939        0.5963424254        3.8222610976
 O        10.9478607229        4.5533672432        2.3583554151
 C         9.1562829969        4.0276236751        4.7004159290
 C        11.1622414880        2.5895492544        5.5009520413
 H        -9.7816506985       -4.0691579016        1.1645863761
 H       -10.6709317351       -4.0597096145        2.6994217190
 H       -11.1026077264       -3.0134901983        1.3952674955
 H        -5.5040099421       -1.4302340024        2.5550678902
 H        -6.6788387839       -2.2883680263        3.4132013927
 H        -7.8991444324       -2.1158524235       -0.9626299449
 H        -9.5006694811       -1.5671664039       -0.3259030388
 H        -8.9817170076       -3.2525944157       -0.3692897362
 H        -6.8578528495       -0.2255139010        1.4897685811
 H        -8.2368153330       -0.0055347991        0.5429097226
 H        -8.2522366618       -0.1038862103        2.2965228291
 H        -5.0031264004       -3.9437739806        3.9422837809
 H        -5.0060537747       -4.4555465345        2.3106948854
 H        -4.3950525038       -3.8349723809       -0.0095865653
 H        -3.4127473848       -2.3352869046        0.1005773810
 H        -0.3416273089       -4.1022809429        3.0600725014
 H        -1.2077247199       -2.4491021632        3.3612152691
 H        -0.6401901049       -3.0196798732        1.7631347728
 H        -1.4599961770       -5.8120825749        3.0491735755
 H        -2.9176664848       -5.3405408114        3.9154641010
 H        -3.0710154815       -5.9310444559        2.3477649348
 H        -3.8520829074       -3.5821670786       -2.4452326736
 H        -2.3636087690       -4.5756459352       -1.8822234964
 H        -2.0171278199       -0.1876972142       -6.4250115321
 H        -3.1402630392       -1.5310550030       -6.1111231733
 H        -0.0786246688       -2.4277214039       -4.9051875405
 H        -0.0451769242       -3.6118229712       -3.5262651577
 H         0.2077236510       -1.7573314546       -3.2880283437
 H        -2.4234233318       -4.3138470505       -4.1110000599
 H        -3.5870096914       -3.1711598617       -4.8980926899
 H        -2.0917496421       -3.5018057637       -5.5676689068
 H        -3.3871232298        1.4017303944       -5.6353441553
 H        -4.3412368894        0.3811539375       -6.6687297316
 H        -6.6369424248        0.7934992008       -1.5585809413
 H        -5.0691744006        0.7329889339       -2.0535602230
 H        -5.4318079994        2.8633577670       -5.6797472666
 H        -7.0793725853        3.1782180387       -5.3212619030
 H        -6.6812729970        2.0378365283       -6.5856063599
 H        -8.4500903887        1.1565923108       -4.4559261847
 H        -7.7115598055       -0.1705526122       -5.2342428639
 H        -7.4999486941       -0.0649418458       -3.5078376751
 H        -5.8360211762        2.0426000674        0.2448337650
 H        -5.4767811643        3.3441558766       -0.8664729533
 H        -1.4315553939        3.8353363243       -0.8142825149
 H        -1.2938206793        4.6136526979        0.7541515020
 H        -3.2698887524        4.6737977385        1.4156088177
 H        -3.7875145825        3.6725966077        2.6585151616
 H        -4.8306419317        3.8150296749        1.3413675875
 H        -3.2304829100        1.7765934883        3.0188933086
 H        -4.5532964746        1.1865901639        2.0731927858
 H        -2.8699655798        0.4981382630        1.7561006569
 H         0.9314889639        4.5227499311        0.0487760774
 H         0.9022827227        3.3368298134        1.2956160188
 H         3.5579756138       -0.3881394288        1.0401020578
 H         3.3696152050       -1.4153355260       -0.3380676206
 H         3.2654311935        3.3822461798       -2.1567109915
 H         2.6728073914        1.8642946544       -2.7054749672
 H         4.2135263333        2.0014519146       -2.0460173555
 H         3.9275284444        1.9967627374        0.7997920232
 H         3.3052934944        3.6349508579        0.5422818294
 H         2.4760703421        2.4753279826        1.5059898353
 H         4.9596189603        1.0778809546       -0.3457621616
 H         4.6133022909        0.0727829492       -1.7751588784
 H         8.2660291254       -0.0211946478        2.4157144887
 H         9.6714919574        0.1713941495        1.4238128114
 H         7.9584615378       -1.9794952766        1.2681373804
 H         9.1816516391       -1.8354041957        0.0296748499
 H         7.6375475916       -2.7272818547       -0.1509492312
 H         8.5752139318       -0.9537389575       -2.1183164309
 H         6.9371302233       -0.8666798950       -2.5727867522
 H         7.7157308656        0.6150948847       -2.1558143856
 H         9.3135367919        2.7134265341        1.7316543777
 H         8.0784462198        2.2243106468        2.9640855939
 H        13.1780571601        3.1242878732        4.2340592460
 H        13.1664554346        3.0707999545        2.4745672016
 H        13.2391273919        4.6399113264        3.2570927803
 H         9.3273251413        4.1726990185        5.7472566102
 H         8.1960965920        3.5843262897        4.6785659393
 H         9.1531317531        4.9064073626        4.1544533024
 H        11.3193316034        3.4075302776        6.1832507309
 H        10.4069764383        1.9294928670        5.9616977408
 H        12.0152831380        1.9947548160        5.2470204946
 Na       -0.8542106917        0.6319210865       -1.5329652322
