155

 C         5.5602049337       -7.5995033756       -5.2525796350
 C         4.0501476049       -7.3335496666       -5.6105425764
 C         3.5759107806       -6.7319969014       -7.0326323533
 C         3.4386355145       -5.0721350404       -6.9440829695
 C         2.8465691476       -4.5798548548       -5.6097535375
 C         4.4673956204       -7.1778382371       -8.1215525576
 C         2.1818995153       -7.3537728134       -7.2454468334
 O         3.2467383850       -7.6190764061       -4.7309997166
 O         3.6191204494       -4.3743337021       -7.8754033236
 C         2.4581295843       -3.1194772030       -5.5310412238
 C         3.6505009625       -2.1845169409       -5.5400279490
 C         3.4500199621       -0.6467827825       -5.0574432653
 C         1.9533654582       -0.4092815440       -4.4066054053
 C         0.8560575109       -0.0083509189       -5.3024519981
 O         4.8077662645       -2.5567697303       -5.6839236156
 O         1.8462199033       -0.7988145722       -3.2297863501
 C         4.5759878311       -0.3006508741       -3.9879606477
 C         3.9162897952        0.0933771413       -6.2845871492
 C        -0.4335299741        0.3279207670       -4.6518254121
 C        -0.1502902432        1.5407899811       -3.7204170794
 C        -1.4215324221        2.1765908653       -2.9917571354
 C        -1.2478496792        1.8100836381       -1.4381365491
 C        -0.0732343937        2.4333757649       -0.6760819322
 C        -1.3559177013        3.6917836957       -3.2822196288
 C        -2.6950498818        1.4145843394       -3.3401611903
 O         0.9833568117        1.9404498573       -3.5518906737
 O        -1.9707938727        0.9336364434       -0.9507455853
 C         1.2879149592        1.6691319484       -0.7018171192
 C         2.1770039957        2.2649695338        0.3494920365
 C         3.4092952462        1.4402229018        0.7695535531
 C         2.9100060588       -0.0520991265        1.0743709193
 C         2.3623422365       -0.2815563557        2.4414472508
 O         1.9238102573        3.3813320945        0.8058102027
 O         2.6540006154       -0.7441913241        0.1121788076
 C         4.4290004580        1.3745168828       -0.4428658615
 C         4.0630195874        2.0840514756        1.9739696162
 C         1.3174342244       -1.4403717041        2.3332423474
 C        -0.0213057589       -0.8731788756        1.8244729025
 C        -1.2520165450       -2.0294302279        1.8070823073
 C        -2.2144805102       -1.5785989607        2.9716450359
 C        -2.9068908314       -2.6287066863        3.7976697909
 C        -2.1475675806       -1.6244704560        0.6051964911
 C        -0.6404247793       -3.3926053861        1.8688149452
 O        -0.2470580022        0.3118337525        1.7034438150
 O        -2.6809421350       -0.4468410126        3.0209349674
 C        -2.8142109711       -2.3729952725        5.3365348395
 C        -1.3839036806       -1.8308058932        5.7667164667
 C        -1.2439628049       -1.2600512447        7.2287297633
 C        -1.8187830128        0.1446916413        7.3200813365
 C        -1.1165707011        1.3663006701        6.6662229138
 O        -0.4154271587       -1.6256737950        5.0195568241
 O        -2.9304951763        0.2497958553        7.8065086418
 C        -1.9738879172       -2.2449624755        8.1824824819
 C         0.3510890982       -1.1695274979        7.6406970273
 C        -1.8935691718        2.7401537135        6.4921314449
 C        -2.1862458889        2.9227440148        4.9624462478
 C        -2.5414565899        4.5771670149        4.5037917773
 C        -3.1610839900        4.4044680266        3.0297962974
 C        -4.6205977002        4.5091728046        2.6182092939
 C        -3.4382274382        5.1589659122        5.5547354252
 C        -1.1620972666        5.3883049241        4.4036082104
 O        -2.1059918707        2.0758964817        4.1191475599
 O        -2.3893183419        3.9300736009        2.2237702693
 C        -4.9160418680        4.3953268560        1.1635390549
 C        -5.1168231062        2.9423676326        0.5877045622
 C        -6.4299699745        2.5749321263       -0.1852121560
 C        -6.3862202228        3.1787599594       -1.6399346102
 C        -7.7133125731        3.2345453770       -2.4709549321
 O        -4.3466805691        2.0034292639        0.8463408660
 O        -5.3324771065        3.2825287764       -2.1788712029
 C        -6.6252647275        1.0840802981       -0.3532889782
 C        -7.6750340614        3.0124275616        0.6459594196
 H         5.9763523646       -6.8559142030       -4.4863101495
 H         5.5558012316       -8.5646680400       -4.6839519379
 H         6.2199910371       -7.7849674669       -6.0478984212
 H         1.9179034352       -5.2211117911       -5.5037980979
 H         3.5745468502       -4.9066090447       -4.9386013035
 H         3.9354192454       -7.1923010962       -9.0742287895
 H         4.7392409154       -8.2238177237       -8.0318311960
 H         5.4397758777       -6.6494406845       -8.2017973574
 H         1.5822786919       -6.9014386135       -8.0023651534
 H         2.3469601137       -8.3848473694       -7.5627953027
 H         1.5706736639       -7.4641561475       -6.3758007707
 H         1.9037841318       -2.8697678826       -6.3676949590
 H         1.7864400434       -2.8209755347       -4.7111259828
 H         1.2860719862        0.8634872680       -5.7909341462
 H         0.7068940350       -0.8379502499       -6.0276390547
 H         4.8115277652        0.7612951456       -4.1549740286
 H         5.4435956454       -0.8247653005       -4.2551377073
 H         4.2045761900       -0.4218787068       -2.9743705099
 H         3.8383088917        1.1759054806       -6.1889495205
 H         4.9316050628       -0.0279689456       -6.5683368905
 H         3.3204638117       -0.0811058126       -7.1723104246
 H        -0.5103428704       -0.5893938554       -3.9970003371
 H        -1.2269112281        0.5622768120       -5.2964481140
 H         0.0789194295        3.4392376912       -1.0734560200
 H        -0.4522207567        2.6046896373        0.3618340196
 H        -1.8446189886        4.1789328824       -2.5508159880
 H        -1.8312940865        3.9068403202       -4.2853568248
 H        -0.3396349903        4.0834420732       -3.3808146627
 H        -3.0302828924        1.6245239763       -4.3230092946
 H        -2.3716489569        0.3458126919       -3.4129196005
 H        -3.4681761445        1.4091767912       -2.5615713387
 H         1.2797365591        0.6652530005       -0.5532963604
 H         1.9041116119        1.8970835374       -1.5755921452
 H         3.1879879165       -0.5913757620        3.1274756725
 H         1.7293078486        0.5942508630        2.9103680666
 H         5.3649076602        0.7548113332       -0.2966284473
 H         4.5981902903        2.4966086084       -0.6536159106
 H         3.9850207268        1.0633626552       -1.4422273855
 H         4.7527809706        1.5245310022        2.5727983567
 H         4.5743865210        3.0230584605        1.7644655754
 H         3.2671988704        2.4158115509        2.6088188989
 H         1.0304333383       -1.7883869937        3.3878973244
 H         1.8929665906       -2.1841780420        1.8198751591
 H        -3.9447905935       -2.6420273767        3.4635272776
 H        -2.4498886758       -3.5773075743        3.6025286392
 H        -1.6432227593       -1.7176292042       -0.3598153766
 H        -2.6019151974       -0.6726828561        0.8257023120
 H        -3.0011623606       -2.3550908319        0.5151927815
 H        -1.4881534559       -4.0624359598        2.0050475040
 H        -0.0072885620       -3.5909403414        0.9602654452
 H        -0.0532258352       -3.5532066406        2.7744112370
 H        -3.5780591632       -1.7187887167        5.7560822695
 H        -2.9889363281       -3.4182599307        5.8699068938
 H        -0.1310796870        1.5561825717        7.1914959149
 H        -0.7548076374        0.9751595967        5.6727284024
 H        -3.0127945675       -2.1652314464        8.0347173078
 H        -1.7586642861       -2.3548885618        9.2903755724
 H        -1.6922072886       -3.2278074879        7.7757268179
 H         0.5593473681       -2.0622471661        8.1322988913
 H         1.0093155591       -1.0962878629        6.7112190482
 H         0.7162199858       -0.3474424398        8.3668818984
 H        -1.1061852627        3.4151857054        6.8782959712
 H        -2.8370356304        2.8689167234        7.0953206686
 H        -5.0938725897        3.6543562254        3.1413245426
 H        -5.0699827213        5.3826978048        3.0490000855
 H        -3.5812963268        6.1919702064        5.2724561634
 H        -3.0280563249        4.9492674551        6.5327105212
 H        -4.4740025160        4.7250209873        5.4532309067
 H        -1.3579193258        6.4089542566        4.6533482685
 H        -0.3969702572        4.9923583756        5.1687443561
 H        -0.5996729546        5.2830386797        3.4816532024
 H        -5.7491000610        5.0652595591        0.7936602675
 H        -4.0242775377        4.7822235312        0.6058479839
 H        -7.3691753673        3.7890073042       -3.4107258256
 H        -8.1117688128        2.2567524434       -2.6636448005
 H        -8.4928595952        3.7437370489       -1.9142945705
 H        -7.3952212548        1.0777758975       -1.0511284075
 H        -6.9294530826        0.7888827674        0.6604409663
 H        -5.7098141921        0.4891270152       -0.4811030527
 H        -7.7945046669        2.4626022917        1.5253081977
 H        -7.6267499830        4.0213470836        0.9964872571
 H        -8.5655194096        3.0209199313       -0.0290092243
 Na       -2.2661865193        1.5556064951        1.6759251653
