155

 C         6.4063509675       -5.7156809212       -4.9199591798
 C         5.1063816525       -6.1459729555       -5.5313651906
 C         4.8904487323       -5.9315552154       -7.0275300459
 C         4.0470594183       -4.6102803078       -7.1961508660
 C         2.7244493790       -4.5220765662       -6.4006912442
 C         6.1699991159       -6.0215962283       -7.9392120482
 C         3.9990848968       -7.1586548889       -7.4211082938
 O         4.1408893897       -6.4167184208       -4.8358671195
 O         4.3948665585       -3.7554113791       -7.9482615492
 C         2.2407608665       -3.1073464181       -6.1820225974
 C         3.3720383125       -2.1800360889       -5.5175504933
 C         3.2803280582       -1.6709274054       -4.0754707001
 C         2.3289331370       -0.3421604489       -3.8554321028
 C         1.8583860762        0.5228642444       -5.0183785516
 O         4.3289710954       -1.7730386804       -6.1760993131
 O         1.8162007614       -0.1128537525       -2.7705337608
 C         2.5977098086       -2.9047109507       -3.2846318330
 C         4.7850446990       -1.5904949631       -3.5632450375
 C         0.3470804309        1.1389620655       -4.8037038088
 C         0.2389311841        2.4343173674       -3.8778609188
 C        -1.0794003536        2.7426461770       -3.0966386868
 C        -0.9964609871        2.3994630852       -1.5768111559
 C         0.0696448726        3.0006389250       -0.7450547459
 C        -1.2715220718        4.2921778619       -3.2284123129
 C        -2.2659743796        2.0524462820       -3.7422589422
 O         1.1958681337        3.1716955703       -3.7882189134
 O        -1.8174271430        1.5970092927       -1.1702152554
 C         1.0126483253        1.9963281164       -0.0336975877
 C         1.8686257613        2.7567598087        1.1360214328
 C         3.1972195979        1.9977705998        1.6242387905
 C         2.8897014955        0.4582819985        1.9261039348
 C         2.2791779961        0.0979529317        3.3241583932
 O         1.4784833927        3.8017853961        1.5388840024
 O         3.0753141959       -0.3852164328        1.0460766421
 C         4.1098354799        2.2534100712        0.3461148106
 C         3.7217959644        2.7740899910        3.0092896877
 C         1.5850396565       -1.1582721077        3.3060526483
 C         0.3163232964       -1.0796762862        2.4932262135
 C        -0.4032591933       -2.2589237978        1.8942463137
 C        -1.8603255682       -2.3163971313        2.5535529563
 C        -2.2550788901       -3.2322133969        3.7929195709
 C        -0.6375248861       -1.9697183451        0.4098113794
 C         0.2978776338       -3.5889234673        2.1616402548
 O        -0.1097641085        0.0510141006        2.2219778083
 O        -2.6807793859       -1.4999258806        2.1723777692
 C        -2.8322863773       -2.4226964085        4.9400203107
 C        -1.7957756749       -1.7619568630        5.7881861189
 C        -2.2628555351       -1.0818330368        7.0904158350
 C        -2.7451489683        0.3853538072        6.6070614140
 C        -1.6733977084        1.3931091733        6.6112682249
 O        -0.6246545668       -1.8557381382        5.4829598507
 O        -3.8851660793        0.5608673294        6.2065844820
 C        -3.5306658141       -1.7392986459        7.6549731704
 C        -1.1176774633       -1.0281926220        8.1630873358
 C        -1.9951333101        2.6613228540        5.8494362576
 C        -2.3060480131        2.5265459597        4.3776120567
 C        -3.6408867395        3.3076321172        3.8229669233
 C        -3.5273477305        3.7038646389        2.2364402555
 C        -4.7017866281        4.4801875189        1.6515025380
 C        -4.8947805547        2.3286760803        3.9362191860
 C        -4.0958310566        4.6745206572        4.5202425717
 O        -1.6736921768        1.7325053244        3.7173802940
 O        -2.5469402590        3.3632995258        1.6090064695
 C        -5.0440439476        3.8657303586        0.2690470475
 C        -5.2878390324        2.3773959494        0.3582261356
 C        -6.6000181952        1.9146381990       -0.2799115955
 C        -6.4320848475        2.2784860103       -1.8226600991
 C        -7.3179947996        1.7247771700       -2.9100604142
 O        -4.5314003946        1.6338144944        0.8499829106
 O        -5.6738481076        3.1951210935       -2.0259140943
 C        -6.8605114944        0.4346085838        0.0957400291
 C        -7.8025937722        2.7087925051        0.2116235196
 H         6.6428152745       -4.7299854062       -5.2883288293
 H         6.3598142828       -5.5070280561       -3.8484851452
 H         7.2481662681       -6.4960868287       -5.1133997717
 H         1.9963632190       -5.1164475331       -6.9484291761
 H         3.0096456597       -4.9977695383       -5.4704311469
 H         5.6758189015       -6.0066175416       -8.9592410640
 H         6.6631570994       -6.9993018763       -7.7642972962
 H         6.8647440633       -5.2011665376       -7.7472040088
 H         3.6660093821       -7.2505023275       -8.4949509121
 H         4.4903420601       -8.1001689599       -7.1529473462
 H         3.1135938437       -7.0662859280       -6.7577553343
 H         2.0357863417       -2.6617694655       -7.1477045153
 H         1.1951329681       -3.0449508204       -5.7630385632
 H         2.4786579761        1.4168474883       -5.0940568205
 H         1.6673910725        0.0051600155       -5.9289173569
 H         2.8498366752       -2.8001865111       -2.2581337744
 H         2.9201561721       -3.9113451223       -3.5745805829
 H         1.5263674793       -2.9597807967       -3.3525500558
 H         4.7982488579       -0.9430469815       -2.7199063315
 H         5.1554531075       -2.5791648891       -3.2665744005
 H         5.3963541107       -1.2861978167       -4.3647827687
 H        -0.3335729887        0.4137274111       -4.3974741409
 H         0.0431445792        1.4464847783       -5.8568755748
 H         0.7211793437        3.5960012417       -1.3729771041
 H        -0.3715310492        3.7002498589        0.0224820912
 H        -2.2210179940        4.6634628658       -2.7972966954
 H        -1.3614074229        4.5611695459       -4.2287762375
 H        -0.5115153764        4.9115150599       -2.7260948610
 H        -2.2887884814        2.3845497550       -4.7729284443
 H        -2.2530499613        0.9691093814       -3.7210482580
 H        -3.2362364283        2.3552171555       -3.3409005944
 H         0.5775661236        1.0967297388        0.4661507400
 H         1.7391504971        1.4922890920       -0.7482837818
 H         3.1616012940        0.1026379263        4.0387986173
 H         1.5967444342        0.8884242460        3.6076346647
 H         5.1929782533        2.1288876242        0.6389227176
 H         3.9462114890        3.2629497913       -0.1076807019
 H         3.9191330961        1.4741383856       -0.4660326869
 H         4.6417695964        2.2601965946        3.3256309133
 H         3.8297345581        3.8200957107        2.7061205036
 H         2.9251828610        2.7576490779        3.7629812675
 H         1.2332629431       -1.4872312889        4.2886638790
 H         2.1586199908       -1.9353080724        2.8882783119
 H        -3.0047486169       -3.9314163282        3.3699048396
 H        -1.4449416433       -3.8566202221        4.1427028692
 H         0.0913206186       -1.2278534549        0.0614732217
 H        -1.6240337910       -1.5886841360        0.1458244378
 H        -0.4509152436       -2.8210862435       -0.2630272139
 H        -0.3834985102       -4.3927785143        2.0674195949
 H         1.0874984940       -3.7548975261        1.4263917095
 H         0.6912503371       -3.7333933129        3.2247391102
 H        -3.3697651957       -1.6179844523        4.6171110754
 H        -3.5067384680       -3.0873058582        5.4950381057
 H        -1.4053468811        1.6834857502        7.6336762560
 H        -0.8398313138        0.8843691050        6.0848148319
 H        -4.4664172278       -1.7762370411        7.0460422262
 H        -3.7032134388       -1.1152701317        8.5056201058
 H        -3.3196895339       -2.7737713433        7.7227383993
 H        -1.0153819758       -2.1688157165        8.3612011846
 H        -0.1859186006       -0.6145824360        7.7300193180
 H        -1.4022791614       -0.4772615402        9.0371682720
 H        -1.3054652239        3.4727967823        5.9225597062
 H        -2.8892218420        3.1054583350        6.3548333333
 H        -5.6678711558        4.4123769698        2.2917698509
 H        -4.3797432947        5.5042923154        1.5367220951
 H        -5.8054660998        2.7429943484        3.5080774571
 H        -5.1926185434        2.1303383548        4.9602066301
 H        -4.7641853139        1.3510015499        3.4676364525
 H        -3.2143959469        5.1354844735        4.9231386508
 H        -4.5763926170        5.3590995580        3.8433247412
 H        -4.7661423643        4.4090476049        5.3196572425
 H        -5.8873608950        4.4031778476       -0.1062974615
 H        -4.2261715218        4.1375188909       -0.4131985045
 H        -8.1821319977        1.2964508092       -2.4225081264
 H        -7.7477986650        2.5696408030       -3.5440242957
 H        -6.8886044073        0.8953921477       -3.4641575333
 H        -7.9505980239        0.0667388337       -0.0927588795
 H        -6.7179285339        0.2861008389        1.1296421883
 H        -6.3903167691       -0.1754663652       -0.6217412006
 H        -8.5109801354        2.0547174660        0.7697240847
 H        -7.5805647951        3.6394800885        0.6758629818
 H        -8.4033409339        2.8198752924       -0.6347524929
 Na       -2.1591765487        0.9498276637        1.3010377393
