155

 C         7.4734989398       -4.8972153100       -5.9297579624
 C         6.0008410281       -5.4564760033       -5.7874033909
 C         5.1639011586       -5.7528217347       -7.0920842065
 C         4.2577494814       -4.4066225196       -7.2463626621
 C         3.1418159147       -4.2048478593       -6.2230533305
 C         5.9583828181       -5.9714951144       -8.3792812113
 C         4.4393239712       -7.0877061295       -6.8369182472
 O         5.4667047207       -5.8024407106       -4.7319632257
 O         4.4847328688       -3.6644444855       -8.1664565863
 C         2.6220046044       -2.7422559501       -6.1645894630
 C         3.2309913127       -2.0620206781       -4.9434270731
 C         2.6949626683       -2.0282912664       -3.5588568637
 C         2.0860522127       -0.6054716579       -3.1722186644
 C         1.5693037271        0.1911809489       -4.4100750156
 O         4.2577626791       -1.3878451060       -5.0179477903
 O         1.8184383670       -0.2347230046       -2.0227083909
 C         1.5443859149       -2.9318120239       -3.2633968469
 C         3.7829875982       -2.1269152262       -2.4103897809
 C         0.2139519588        0.9104949174       -3.9714428326
 C         0.4169792069        2.3207921104       -3.3556521974
 C        -0.8094826464        3.0513132851       -2.6996167311
 C        -0.7541697491        2.6179791472       -1.1587273633
 C         0.1846207877        3.3759318701       -0.2460557538
 C        -0.5518808550        4.5623638674       -3.0448689167
 C        -2.1421400477        2.6119921457       -3.3111171584
 O         1.5050979439        2.8412798665       -3.3283986742
 O        -1.5428303571        1.7862135376       -0.7771926874
 C         1.5943196987        2.7933845007       -0.0512523939
 C         2.0984808956        3.0935765562        1.3809224997
 C         3.4839708001        2.3487922845        1.7804142503
 C         3.0881455706        0.8381585406        1.9526701267
 C         2.1795602334        0.3440869773        3.1824873632
 O         1.5366721255        3.7237309473        2.2470596487
 O         3.4977244178        0.0218334440        1.2156779774
 C         4.5179740906        2.5288544505        0.7365740612
 C         3.9961293011        2.8324877045        3.1195576567
 C         1.5144007706       -0.9600879064        2.8299507195
 C         0.1825116227       -0.6214782350        2.0233915736
 C        -0.6927156900       -1.8491679659        1.3874671752
 C        -2.0302797066       -1.9435643467        2.2060951188
 C        -2.4435172659       -2.9881822972        3.2380642427
 C        -1.0417562210       -1.5283924817       -0.0723660028
 C         0.0646420950       -3.1827514275        1.4853345421
 O        -0.0608726980        0.5228675801        1.6068388087
 O        -2.8629693258       -1.0711854426        1.9224497472
 C        -3.2666794025       -2.4515732856        4.4094276992
 C        -2.3248621713       -1.7671321192        5.4923552201
 C        -2.8349613676       -1.2087653295        6.8465269113
 C        -2.8287852493        0.3525618066        6.7627473427
 C        -1.5561698254        1.1382485258        6.2850444754
 O        -1.1185105640       -1.7563982472        5.2810270786
 O        -3.7955851923        1.0649869553        7.0711392414
 C        -4.2271635541       -1.6794845184        7.1820791421
 C        -1.9840115678       -1.7238732839        8.0295514294
 C        -1.9811567225        2.5741679757        5.6918773707
 C        -2.5835142894        2.4195917565        4.2745254856
 C        -3.7406722308        3.3596766495        3.7282176301
 C        -3.6038310341        3.3906904430        2.1133911913
 C        -4.7930659766        3.7613749369        1.2121349118
 C        -4.9382443524        2.4603939318        4.1049132245
 C        -3.9043463827        4.8563740751        4.2003738007
 O        -2.2400522326        1.4981582581        3.5504214315
 O        -2.4673998423        3.2934398352        1.7102546010
 C        -4.8358800191        3.1046542660       -0.1654345655
 C        -5.2164095657        1.6137622173       -0.0623764020
 C        -6.6433000474        1.0664013064       -0.5192081753
 C        -6.5215250544        1.2628824436       -2.1843024271
 C        -7.7035190581        0.7577259704       -3.0159875592
 O        -4.3733686309        0.7979385455        0.1506692858
 O        -5.6310039794        1.9547832234       -2.5908524010
 C        -6.7277324382       -0.4347350875       -0.2225514367
 C        -7.9042793323        1.8207682797        0.0267430169
 H         7.5566003561       -4.3254681308       -6.8782206109
 H         7.9612486945       -4.5129875423       -5.0491813442
 H         8.1202396309       -5.7709306073       -6.2737015780
 H         2.3898164300       -4.8814543995       -6.5255352935
 H         3.5171129462       -4.6453509434       -5.2508294337
 H         5.1396014000       -6.1498131266       -9.1561477636
 H         6.7726183494       -6.7081778994       -8.3835603599
 H         6.3991227852       -5.0111886464       -8.7428026963
 H         3.4605926204       -7.0613247865       -7.2616623895
 H         4.9390877094       -7.9902410064       -7.2670473671
 H         4.3378528093       -7.1665340039       -5.7587019362
 H         3.0955928714       -2.2966586971       -7.0693237033
 H         1.4892833877       -2.6852852872       -6.1509112305
 H         2.3095014622        1.0329392842       -4.6393261076
 H         1.4728126941       -0.2240403218       -5.4021225066
 H         1.0085914298       -2.6337600729       -2.3105290246
 H         1.8570634324       -3.9299157614       -2.9983139761
 H         0.7050339336       -2.9855319883       -3.9867818771
 H         3.3105604775       -2.2190600683       -1.4986094513
 H         4.4404289246       -2.9821219412       -2.5162520997
 H         4.2548120268       -1.2175548304       -2.3056441145
 H        -0.4418835684        0.2634739167       -3.3684206488
 H        -0.4502798850        1.0966294494       -4.8258565349
 H         0.3182510106        4.3967002371       -0.7458010626
 H        -0.2748613821        3.5369098718        0.7240001137
 H        -1.1948894326        5.1972710766       -2.3579791835
 H        -0.9102348956        4.7921116745       -4.0324417085
 H         0.4652574479        4.8076679735       -3.0731250526
 H        -2.0908731794        2.6286419916       -4.3599457791
 H        -2.3239534765        1.5610953777       -2.9892826245
 H        -2.9133226122        3.3284810825       -3.0397331966
 H         1.5316166031        1.6747386100       -0.2030920449
 H         2.2410889574        3.1199147859       -0.8808608537
 H         2.9215914107        0.1637826006        3.9614044965
 H         1.5250095160        1.2197723346        3.5958359844
 H         5.5210138471        2.7019582489        1.1235336467
 H         4.2281539567        3.2643945588        0.0070811962
 H         4.5432871758        1.5400237981        0.2538196000
 H         4.9149898303        2.2763529058        3.2794497724
 H         4.3656792629        3.8968857007        3.1175146764
 H         3.2342062569        2.6318712631        3.8613887196
 H         1.0927776223       -1.4761771182        3.6582573070
 H         2.2117825435       -1.6021905841        2.2746132355
 H        -2.9897057095       -3.7127969287        2.6250216284
 H        -1.5465509421       -3.4793861869        3.6648555597
 H        -0.3471258587       -0.8174492889       -0.5161045530
 H        -2.0080977911       -1.0656027385       -0.1201915222
 H        -1.0595803873       -2.4212284408       -0.6767272844
 H        -0.5426954383       -3.9659983848        1.1164819236
 H         0.9776679490       -3.1320535344        0.9028235548
 H         0.2124281374       -3.4306211072        2.5953411647
 H        -4.0411791154       -1.7386000554        4.1631592195
 H        -3.8954732448       -3.3306163975        4.8060315591
 H        -0.9168087320        1.4468478015        7.0975414618
 H        -0.8594567191        0.6575954214        5.6299870708
 H        -4.9325706578       -1.2644244295        6.4855901364
 H        -4.6279389233       -1.3323940844        8.1705050573
 H        -4.2399689124       -2.6966577690        7.4172696484
 H        -2.2596605432       -2.8358470764        8.1569659607
 H        -0.8780382983       -1.6270553370        7.8449358540
 H        -2.3492327562       -1.1902541592        8.8818201473
 H        -1.0945208045        3.1756286529        5.4658306416
 H        -2.6573001782        3.0618704018        6.4023374767
 H        -5.7177950831        3.3829510015        1.6533949310
 H        -4.9441574987        4.8720890918        1.1534098475
 H        -5.7980840614        3.0329295941        4.4664628462
 H        -4.6800875625        1.8252458003        4.9013858829
 H        -5.3104928699        1.7166843751        3.3488101867
 H        -2.9979615879        5.2748488336        4.4818904470
 H        -4.2519064087        5.5664102188        3.4359694152
 H        -4.5587637581        4.8682505878        5.0192104542
 H        -5.6838229640        3.5546086442       -0.6688309902
 H        -3.8501033986        3.2367534834       -0.6667437752
 H        -8.6412682927        1.1292142633       -2.6615732696
 H        -7.4914295721        0.9733321909       -4.0912503108
 H        -7.7197985005       -0.3294424398       -3.1353116757
 H        -7.7351714434       -0.8681858357       -0.4181035725
 H        -6.5780511469       -0.7662069356        0.7397255020
 H        -5.8713631238       -0.9072624142       -0.5962839510
 H        -7.7424252888        1.9236417679        1.1227371563
 H        -8.0313279956        2.7996901482       -0.4384635864
 H        -8.7306257922        1.2765653247       -0.3505855287
 Na       -2.3065317470        1.0652887593        1.1871525363
