155

 C         8.2344554601       -4.2528458220       -7.3148501927
 C         7.0881252994       -4.9926376033       -6.4701193492
 C         5.7310912753       -5.4626326956       -7.0639236037
 C         4.7730948423       -4.1590800333       -6.8007076160
 C         4.4780193646       -3.6546254014       -5.3955819928
 C         5.8408886909       -5.9488355085       -8.4808828783
 C         5.2740744100       -6.5462372937       -6.1226106629
 O         7.1978510713       -4.9352237316       -5.2837663334
 O         4.2566153400       -3.6131180147       -7.7164074222
 C         3.4504297248       -2.4426789835       -5.4152346967
 C         3.3515544320       -1.8774160657       -3.9961336472
 C         2.1479473953       -2.1652077699       -3.0753489639
 C         1.4313500142       -0.8414779828       -2.7138372189
 C         1.1961443272        0.2217616161       -3.7068106192
 O         4.0479303301       -0.9660938037       -3.6008932404
 O         1.0356466864       -0.7000526368       -1.5617593088
 C         1.0022811255       -3.0453218788       -3.6825941680
 C         2.8418491382       -2.8532403013       -1.8180611041
 C         0.0537860398        1.2001667508       -3.3356165071
 C         0.6873737010        2.6325537741       -2.7732684749
 C        -0.3383211924        3.7205366540       -2.2868804935
 C        -0.7612229260        3.0057849924       -0.9107851149
 C         0.1209577510        3.2599958180        0.3151896565
 C         0.3214685167        5.0500238116       -2.0932660111
 C        -1.5661812696        3.9355057711       -3.2378139113
 O         1.8637719473        2.7962067077       -2.7316731074
 O        -1.5703231711        2.0679956585       -1.0223590033
 C         1.6785856819        2.9413825433        0.1140440037
 C         2.3982764652        3.0885177829        1.5347511311
 C         3.7364559119        2.2256925856        1.6693110408
 C         3.3554839849        0.6660463135        1.5311821509
 C         2.3298291267        0.2116124054        2.5664002465
 O         1.9923460076        3.6860984694        2.4726895454
 O         3.6643471109       -0.0719591202        0.5689006607
 C         4.5806572288        2.4647865024        0.3389271503
 C         4.4619187085        2.5130270887        3.0057579118
 C         1.6059062485       -1.0480442552        2.1506553300
 C         0.2766573497       -0.8649814036        1.4669682375
 C        -0.6339324981       -2.2437484371        1.2275359580
 C        -1.7097102056       -1.9758732972        2.2508510736
 C        -2.1292943966       -3.2120225555        3.1937813908
 C        -1.1889519990       -2.2365082853       -0.2638636963
 C         0.1820868479       -3.5357517512        1.3842507575
 O        -0.2523576868        0.1674579594        1.1923608366
 O        -2.2897683180       -0.8732160411        2.3341624716
 C        -3.0223113615       -2.9373336372        4.4720170696
 C        -2.2733605946       -1.8954280332        5.4049323767
 C        -3.1768749467       -1.2110022402        6.5136879816
 C        -3.4728391890        0.2874041528        5.9579993399
 C        -2.7619635141        1.5897455772        6.4891121841
 O        -1.0846373165       -1.6743911022        5.4297531949
 O        -4.3018267027        0.3789985355        5.0510530166
 C        -4.3994360936       -2.0458463432        6.7851530421
 C        -2.3498838181       -1.1301934569        7.8443708603
 C        -3.2646669450        2.8609476858        5.7757979176
 C        -3.3967729146        2.6722870277        4.2190681811
 C        -4.1933738770        3.8279735116        3.5035195863
 C        -4.3901306281        3.5105799083        2.0468675606
 C        -5.7564390208        2.9913817224        1.4845141033
 C        -5.6590777603        3.9691252558        4.2248011324
 C        -3.5070569139        5.2518677343        3.6590414809
 O        -2.8230363034        1.8228677651        3.6092956531
 O        -3.3598005947        3.5965873573        1.3813368334
 C        -5.5663148072        2.5118851663        0.0035173838
 C        -5.3862585948        0.9093820873       -0.0231676609
 C        -6.5422603313        0.2551371363       -0.8289490816
 C        -6.3521766265        0.7456112407       -2.4172669003
 C        -7.4165753416        0.3605584878       -3.3601911233
 O        -4.4907466769        0.2809387288        0.5792964212
 O        -5.3640283986        1.3636700287       -2.7320216026
 C        -6.5718936868       -1.2550690196       -0.6183306459
 C        -7.9078668007        0.7800786868       -0.4066187231
 H         7.9297100420       -3.9231312346       -8.2796365197
 H         8.4176570889       -3.2492246605       -6.8658273422
 H         9.1796535287       -4.8139117139       -7.3755656686
 H         3.9931388419       -4.3960245454       -4.7996218859
 H         5.4655381527       -3.3320619770       -4.8709511478
 H         4.9033037259       -6.4072119519       -8.8362541815
 H         6.5972854182       -6.7702626710       -8.5225076560
 H         6.0036033179       -5.2292945655       -9.2866252081
 H         4.1742480591       -6.7599971677       -6.3071525495
 H         5.8776479158       -7.4245894430       -6.3494599507
 H         5.4272607527       -6.1691409230       -5.0869079672
 H         3.5497483342       -1.7780945323       -6.2779172575
 H         2.4597913349       -2.9134487648       -5.6807716921
 H         2.0459223602        0.9328519417       -3.9045731672
 H         0.9988405473       -0.3209110887       -4.6036338638
 H         0.1371525224       -2.9714718582       -3.0614772620
 H         1.2926010050       -4.1385335529       -3.7820687762
 H         0.7298460155       -2.7053877222       -4.6748961369
 H         2.2199537325       -2.7864979728       -0.8876236000
 H         2.9900779071       -3.8747368987       -1.9630437983
 H         3.8224273006       -2.4022878958       -1.5725541128
 H        -0.3917511824        0.8454250562       -2.4376239275
 H        -0.6570102021        1.3953079953       -4.1476096414
 H         0.1402850719        4.2855263251        0.6044656851
 H        -0.2511540651        2.6610823136        1.1410669974
 H        -0.2969637281        5.7031142252       -1.5264521157
 H         0.7134938522        5.3871611234       -3.0517561887
 H         1.2800367591        4.9340596926       -1.5013206100
 H        -1.1823657881        4.4174635003       -4.1299857967
 H        -1.9841601313        2.9916922896       -3.4766996869
 H        -2.2197479737        4.6047373481       -2.7013879423
 H         1.7079893635        1.9289627039       -0.3103587002
 H         2.1078889389        3.6084193443       -0.6071225104
 H         2.6917786522        0.0350795691        3.6501713999
 H         1.5400181278        0.8894171252        2.6493847719
 H         4.4841759680        3.5367880209       -0.0346311523
 H         4.3270675466        1.7533297589       -0.5090414684
 H         5.6610211208        2.3179762110        0.6846821626
 H         5.2683141199        1.8341830984        3.2778447293
 H         4.6511660691        3.5526145439        3.0333726064
 H         3.8204489124        2.2376931911        3.8325281879
 H         1.3255800832       -1.6066253980        3.0715216074
 H         2.2174923300       -1.7116819232        1.4389791629
 H        -2.7394081558       -3.8699329765        2.4999585216
 H        -1.2278183730       -3.7849198862        3.4395200095
 H        -0.4469955374       -2.1397008832       -1.0482188268
 H        -1.8431032533       -1.3723686813       -0.3888747431
 H        -1.8378670785       -3.1108165986       -0.3390975729
 H        -0.4304604598       -4.3956211743        1.1463327932
 H         1.1074851558       -3.5974392170        0.7574960392
 H         0.4959772956       -3.5939328017        2.4113058288
 H        -3.9648404468       -2.6667411745        4.1385126512
 H        -3.0964182184       -3.8734601283        5.0071881473
 H        -2.7426715985        1.7595586022        7.5793429027
 H        -1.6649588265        1.4248936994        6.2487182509
 H        -5.0626411540       -2.2679858757        5.9162147136
 H        -4.9975623808       -1.6600077863        7.5631800520
 H        -4.2191120966       -3.0881825519        7.1340429022
 H        -2.0436154787       -2.1421077398        8.0795529835
 H        -1.4344668217       -0.6965621494        7.5139626899
 H        -2.7580388440       -0.7662471134        8.8099302253
 H        -2.6497161512        3.7389192164        5.9426206945
 H        -4.2487580628        3.2160293287        6.1624459897
 H        -6.1436013110        2.1779415239        2.1095265229
 H        -6.4602254896        3.7886913490        1.4742770032
 H        -6.1722651899        4.8675250247        3.8435738539
 H        -5.4832669909        3.9037350060        5.3205333957
 H        -6.3911854556        3.2329781307        3.9551469345
 H        -2.5011950683        5.3585776093        3.1926032130
 H        -4.1058100869        6.0129705438        3.2729658013
 H        -3.2982886551        5.4646266053        4.7121469647
 H        -6.3704286154        2.7595175349       -0.6606648261
 H        -4.7482162902        3.0231050892       -0.5572444990
 H        -8.1873692537       -0.2932877595       -2.9515305435
 H        -7.9833481009        1.1297330516       -3.7983695159
 H        -6.9425670844       -0.1724846434       -4.1699239972
 H        -7.2814624264       -1.6959010484       -1.2042889586
 H        -6.7012624118       -1.5221810060        0.4943063286
 H        -5.8211677247       -1.9744421190       -0.9457404460
 H        -8.6848135616        0.0339585197       -0.5218607469
 H        -7.9666366389        0.8933113026        0.6569522822
 H        -8.2152070040        1.7263498847       -0.8015458942
 Na       -2.4044461711        1.1847220443        1.1158511420
