155

 C         8.3127053172       -4.0787482109       -8.1683029264
 C         7.7608584973       -4.4948767580       -6.8534934533
 C         6.2036736027       -5.0790419785       -6.7321652360
 C         5.1915536455       -3.8451963976       -6.6565047513
 C         5.1733091333       -2.9832007898       -5.4318224954
 C         5.8640988133       -5.8386251945       -8.0018791282
 C         6.1347029892       -6.0238898412       -5.4845987047
 O         8.4125600631       -4.5243146587       -5.8250463587
 O         4.3833191542       -3.6200669794       -7.5549389406
 C         3.7986755656       -2.2201641129       -5.2665820880
 C         3.5119451878       -1.7209078258       -3.8523051881
 C         2.1501656412       -1.9149679840       -3.0427043702
 C         1.4612737266       -0.4964022760       -2.6288815038
 C         0.8562389122        0.4278371892       -3.9545632397
 O         4.4642871385       -1.2070769132       -3.3010583892
 O         1.3695412189       -0.1445738417       -1.4499520540
 C         1.1490111704       -2.7237998229       -3.9894698617
 C         2.3831288588       -2.6764787151       -1.7298384777
 C        -0.1365280240        1.3886911049       -3.4180253428
 C         0.4094336619        2.6517924782       -2.8145200579
 C        -0.6654686411        3.5963222989       -2.0975024297
 C        -0.5078347284        3.0508370420       -0.6415214291
 C         0.5281424016        3.5325041191        0.4182669669
 C        -0.2850062032        5.0922623521       -2.1860473331
 C        -2.1920984227        3.5289559033       -2.5735720940
 O         1.6026159838        2.8749636573       -2.6354287430
 O        -1.1104001930        2.0009591537       -0.3407730294
 C         1.6239908610        2.4799123136        0.4349697651
 C         2.6249033861        2.7722175401        1.7205822914
 C         3.9343655360        1.7311556383        1.7936098042
 C         3.4119298879        0.3906501799        1.3732604964
 C         2.4831287444       -0.2886040100        2.3712919445
 O         2.6397152808        3.6995539497        2.5558621060
 O         3.6041196295       -0.1282582689        0.3010504423
 C         4.9246688925        2.1582663159        0.6614475919
 C         4.5984595244        1.7611783314        3.1657505548
 C         1.5045088370       -1.2946216398        1.7475389606
 C         0.0383409478       -0.8249732306        1.8489521935
 C        -1.1033634014       -1.9115101476        1.3802023502
 C        -2.1142667854       -1.8325595858        2.4772875089
 C        -2.2182030809       -2.9465967715        3.4286117102
 C        -1.6545397068       -1.2469023949        0.0384889343
 C        -0.5960931695       -3.3931100013        1.0840557741
 O        -0.3123279013        0.2244064078        2.3681110524
 O        -2.9115452581       -0.8663780692        2.4660681369
 C        -3.1824381472       -2.8180850143        4.5593831400
 C        -2.5389064071       -2.0831703865        5.7603567676
 C        -3.3452202063       -1.2815629935        6.7616647961
 C        -4.0758858236        0.0241526558        5.9996600492
 C        -3.3989743372        1.3803342289        6.0420914855
 O        -1.3287521316       -2.2099316072        5.9158641902
 O        -5.0285347340       -0.2261949858        5.3098692072
 C        -4.5239556941       -2.1028907082        7.2030522564
 C        -2.3455870810       -0.8913945211        7.8708866706
 C        -4.2274451622        2.4495075874        5.3947407709
 C        -3.7268474184        2.8220857836        3.9198520432
 C        -4.3016390628        4.0123866805        3.0504275630
 C        -4.5141749391        3.5694935871        1.5055323694
 C        -5.6555561121        2.6385512139        1.2951697155
 C        -5.7438979564        4.4896763274        3.6999455278
 C        -3.2134573304        5.1028416145        3.0337331959
 O        -2.8414355684        2.1002284795        3.5286294129
 O        -3.7152291448        3.9096335639        0.6376901973
 C        -5.7467586333        2.3435943292       -0.2296710036
 C        -5.2110508076        0.8720388163       -0.3984625451
 C        -6.1792873615       -0.0758911532       -1.1266103908
 C        -6.4189453868        0.4055189797       -2.6980894595
 C        -7.2632953123       -0.5691971949       -3.4463842773
 O        -4.1117750851        0.5205846966       -0.0314690778
 O        -5.8421168536        1.3967838946       -3.0947092478
 C        -5.4730532711       -1.4775143754       -1.1717565630
 C        -7.5523337706       -0.3233551809       -0.3413860884
 H         9.1469397233       -4.7877113713       -8.4638099136
 H         7.6693116219       -3.8684182461       -9.0362837933
 H         8.9206678883       -3.2266663877       -8.0167399929
 H         5.4725099240       -3.4632272398       -4.5139547911
 H         5.9707559845       -2.1790471992       -5.4150207287
 H         4.8719994605       -6.1123991020       -8.0266313314
 H         6.4391407984       -6.7695368197       -8.1366251228
 H         6.1162285198       -5.1855541025       -8.8239624907
 H         5.2243852087       -6.6418570679       -5.5523115726
 H         6.9834780590       -6.6410327172       -5.5425521032
 H         6.2534721474       -5.4808448502       -4.5575197434
 H         3.9183023940       -1.4216229578       -6.0077930398
 H         2.9727970903       -2.9505318350       -5.5943705963
 H         1.7408150455        1.0325407593       -4.3592339892
 H         0.4032230783       -0.3521287527       -4.5946959139
 H         0.1686101158       -2.7695164252       -3.5208741680
 H         1.6457622760       -3.6903288578       -4.2657773867
 H         1.1291228235       -2.1418610439       -4.9411402041
 H         1.5581162397       -2.5937652872       -1.0205211601
 H         2.5755547782       -3.7557224346       -2.0088188471
 H         3.2478922721       -2.3125866344       -1.2009122040
 H        -0.6110039647        0.9633263680       -2.5456358627
 H        -0.9310486173        1.6260787394       -4.1764894141
 H         0.9705488721        4.5238245158        0.2849266613
 H         0.1160588629        3.5765852087        1.4940267000
 H        -0.6344605760        5.7590319729       -1.4088596247
 H        -0.7123062075        5.6271459699       -3.1069116350
 H         0.7700346138        5.1459956461       -2.1699913316
 H        -2.1987036036        3.8523697640       -3.6482442498
 H        -2.5804382544        2.5597298107       -2.3524984219
 H        -2.7074047767        4.2346433608       -1.9246592339
 H         1.1819788733        1.4514522957        0.4324562434
 H         2.0688685518        2.4869496331       -0.5606460209
 H         3.0987405215       -0.7522892163        3.1188655260
 H         1.8698507909        0.2725528830        3.0091675108
 H         4.6233341727        1.6890996423       -0.2406674498
 H         5.8928572790        1.9159818060        0.9037449643
 H         4.8971583356        3.1941421385        0.5620626272
 H         5.6678653222        1.5275256774        3.1468497324
 H         4.6775267900        2.7517547550        3.5895315045
 H         3.9903100117        1.2219410543        3.9327472664
 H         1.6863978409       -2.3693152345        1.8380622392
 H         1.6622572427       -1.1244376064        0.6623854899
 H        -2.3701743636       -3.9370144371        2.8944891700
 H        -1.1997258502       -3.0653495763        3.7504756256
 H        -0.9087258525       -0.6786015631       -0.5312619426
 H        -2.5504308897       -0.6311932671        0.2340647019
 H        -2.1037110908       -2.0361166543       -0.5962907772
 H        -1.5427771501       -4.0073075143        0.9928095366
 H        -0.0019787048       -3.5583180276        0.1667331699
 H        -0.0595962879       -3.8799732248        1.8344437555
 H        -4.1320792327       -2.3409504985        4.1394691845
 H        -3.4721904413       -3.8210023791        4.8525438311
 H        -3.4018105768        1.6457791268        7.0673208456
 H        -2.4165755907        1.1572491240        5.5993697984
 H        -5.1792931627       -2.2803871768        6.3912632355
 H        -5.2105093951       -1.6750611366        7.9386522320
 H        -4.2191245838       -3.0900491614        7.6438312540
 H        -1.9050612779       -1.7684808778        8.2271276428
 H        -1.5912388450       -0.2464299056        7.3873826102
 H        -2.7760343511       -0.2235363186        8.6682209555
 H        -4.2785901079        3.2994439020        6.0359160274
 H        -5.2936075764        2.1330540197        5.2489052716
 H        -5.6773448974        1.8345305417        2.0820637965
 H        -6.5262580570        3.2442841290        1.4941866621
 H        -6.2792797677        5.0801430105        3.0151734057
 H        -5.5360748498        5.2168789979        4.4768013821
 H        -6.1591634892        3.6256126229        4.0911481110
 H        -2.3205467449        4.6891768922        2.5376494056
 H        -3.4907914407        6.0245931801        2.5217896278
 H        -2.9070678031        5.3834544976        4.0653408709
 H        -6.7553756840        2.3990600503       -0.5710485815
 H        -4.9769217344        2.9735508962       -0.7824237412
 H        -7.4210341738       -0.4159557904       -4.5234631599
 H        -6.8141245242       -1.5490943449       -3.4689548695
 H        -8.2852517991       -0.6738546587       -3.0057716584
 H        -6.3106473312       -2.1851259773       -1.3669679288
 H        -5.1022951954       -2.0193856655       -0.3689355136
 H        -4.7005236156       -1.5108369172       -1.9097838031
 H        -8.4250967386       -0.5117632248       -0.9248222954
 H        -7.4022427433       -1.1173444485        0.3765269278
 H        -7.9116295753        0.4828204603        0.3524961257
 Na       -2.3853451650        1.3157113796        1.4486249668
