155

 C         8.1129507215       -3.8294282321       -8.2874868100
 C         7.7146136885       -4.3252217208       -6.8414513839
 C         6.3388303682       -5.0389114133       -6.6841037901
 C         5.3007545921       -3.7809851790       -6.6135703201
 C         5.2386783094       -2.9127365554       -5.3277642088
 C         5.9457623854       -5.9060680856       -7.8570958471
 C         6.2936693401       -5.8503663120       -5.3317323053
 O         8.4280220608       -4.1551028899       -5.9022986333
 O         4.6318994724       -3.5973615745       -7.6084758029
 C         3.8628579492       -2.1912177616       -5.2192474581
 C         3.6143546491       -1.5286173868       -3.8725324042
 C         2.1320154722       -1.7631600982       -3.1578472463
 C         1.4936963027       -0.4573871025       -2.7520998186
 C         1.1249057275        0.5350177604       -3.9568728996
 O         4.5067970151       -1.0972438967       -3.1574139575
 O         1.2615105911       -0.2840715913       -1.5649436100
 C         1.0404052743       -2.5331772227       -3.9658821090
 C         2.5598874144       -2.6447085470       -1.9454703714
 C        -0.1413090233        1.3388530137       -3.4841814761
 C         0.3976034413        2.6228805012       -2.7451915718
 C        -0.6361191485        3.5417139396       -1.9366405374
 C        -0.4953528587        2.9170236940       -0.5448876256
 C         0.6224269983        3.3025311904        0.3416640456
 C        -0.1715224024        5.0068707874       -2.0028578687
 C        -2.1092864152        3.2962225482       -2.5756665038
 O         1.5119562439        3.0461928342       -2.8730057456
 O        -1.1207968864        1.8789724178       -0.4203405150
 C         1.7832661714        2.2911063304        0.3034061766
 C         2.6781420227        2.7127560056        1.5521338450
 C         3.9478457949        1.6902137607        1.6941429481
 C         3.4053111160        0.2671754541        1.3794139116
 C         2.5556566309       -0.4394794917        2.4793197132
 O         2.5376823435        3.5109400053        2.4093739663
 O         3.7082761944       -0.3186053870        0.3613256785
 C         5.0588740283        2.1514184069        0.8349632824
 C         4.4572829854        1.7832724687        3.1501954754
 C         1.4923070742       -1.3634110101        1.7541518315
 C         0.0305630231       -0.8806284153        2.0057202429
 C        -1.1439081928       -1.8054343954        1.3809739383
 C        -2.2504459936       -1.8121331417        2.5253810110
 C        -2.5274870489       -3.0595127567        3.3831312560
 C        -1.6211749741       -1.3182123020        0.0408771016
 C        -0.5154976913       -3.2307505777        1.1487901842
 O        -0.2392472327        0.2436113250        2.4275857020
 O        -2.9384042796       -0.8277940364        2.7236555379
 C        -3.4263309271       -2.6775907372        4.6066579948
 C        -2.5848036321       -2.0524561391        5.7044756590
 C        -3.4629849463       -1.1984645297        6.7650775135
 C        -4.1203809337       -0.0451987421        6.0951172354
 C        -3.5461941622        1.4307746109        6.1102181582
 O        -1.3994231480       -2.1822061153        5.8166369743
 O        -5.1422245842       -0.2139993323        5.4213696686
 C        -4.4311125770       -2.1685640869        7.3802651124
 C        -2.6002357238       -0.6598965284        7.9532481586
 C        -4.4441621182        2.3778482640        5.2247129837
 C        -3.9289127874        2.6343203814        3.8333919561
 C        -4.4011120583        3.8973897582        3.0288019044
 C        -4.5519255846        3.4039842548        1.6032179250
 C        -5.8695401585        2.5752314455        1.2622904287
 C        -5.6423000728        4.7188361890        3.5220013236
 C        -3.2418505181        4.9600886433        3.0622866905
 O        -2.9918276131        2.0117336560        3.3784951325
 O        -3.8847900018        3.8803528693        0.7201779639
 C        -5.9530259469        2.2916958215       -0.1903090182
 C        -5.2216770595        0.9593773013       -0.5413089227
 C        -5.9620118247       -0.2694520421       -1.2382074097
 C        -6.3935622639        0.2668448949       -2.6828102215
 C        -7.3290721913       -0.6574169374       -3.6640188629
 O        -4.0847506299        0.7895504198       -0.1113769822
 O        -6.0484107214        1.3798262582       -2.9427234900
 C        -5.1075912540       -1.5725898141       -1.2864548113
 C        -7.2673165569       -0.3573831074       -0.3359720766
 H         8.3750676703       -4.6075056238       -8.9763505376
 H         7.3742599499       -3.1271835558       -8.7667019293
 H         9.0533085019       -3.2146296787       -8.2882819122
 H         5.4294336352       -3.4976158981       -4.3829501310
 H         6.0613954064       -2.2348338174       -5.2204398082
 H         5.0982296247       -6.6195777858       -7.5181757486
 H         6.7357054015       -6.6460695745       -8.0745348039
 H         5.6553720465       -5.3214289403       -8.7672987351
 H         5.2802638256       -5.9661747076       -5.0238243654
 H         6.7599700940       -6.8233224675       -5.5083861596
 H         6.9338935161       -5.4202160427       -4.5912758399
 H         3.7739837646       -1.3319306767       -5.9526454261
 H         3.1724208917       -2.9863537340       -5.3337479976
 H         2.0016195483        1.0831283846       -4.1499018001
 H         0.9202095993       -0.2103735420       -4.6775723411
 H         0.0648612656       -2.2016813438       -3.5766627115
 H         1.2459082537       -3.5840515461       -3.9071713221
 H         1.1940440376       -2.3121271304       -4.9966735695
 H         1.7959964574       -3.1713264051       -1.4270354890
 H         3.3439696141       -3.2421723485       -2.1561613400
 H         2.9785331438       -1.8998808442       -1.2840452132
 H        -0.6854601510        0.6904436761       -2.7413110217
 H        -0.8564809712        1.6267931374       -4.2261227095
 H         0.9200665959        4.3420621174        0.1513349418
 H         0.4189154415        3.3082413323        1.3746563705
 H        -0.7089570411        5.5659180617       -1.2113680712
 H        -0.4756900852        5.5001248443       -2.9033829297
 H         0.9348379201        5.2328633377       -1.8289456373
 H        -1.9519061256        3.3670489437       -3.6186380932
 H        -2.5127763759        2.3318959685       -2.2059787567
 H        -2.7726794508        4.0905340646       -2.2066826921
 H         1.3650156771        1.2930357705        0.3533420390
 H         2.2917949586        2.2334439552       -0.6714722968
 H         3.0896839520       -1.0618079206        3.2681531416
 H         2.0985774633        0.3842435484        3.1521645061
 H         4.8808900857        1.8653358685       -0.2141431412
 H         5.9960568260        1.6927804862        1.1936880971
 H         5.2040565563        3.2478797834        0.9954878298
 H         5.3380838075        1.2240594115        3.3018538204
 H         4.8985549058        2.7415802702        3.3918421026
 H         3.6659748056        1.7748402185        3.8457674787
 H         1.7136432948       -2.3688172298        2.1905613469
 H         1.7338785592       -1.5462311009        0.6745464129
 H        -3.0836976562       -3.6970612487        2.7226930935
 H        -1.6624572637       -3.7272341724        3.6739590260
 H        -0.8052487279       -1.1242201324       -0.6598154265
 H        -2.1778174313       -0.4266890084        0.2277667699
 H        -2.2818005628       -2.0045685683       -0.4643781296
 H        -1.1988656735       -3.8723148223        0.6921720156
 H         0.3584723426       -3.2576163725        0.5024324306
 H        -0.0938600274       -3.7422159184        2.0649549956
 H        -4.2630812200       -2.1141736696        4.4108308786
 H        -3.8182744609       -3.6336179060        5.0001817100
 H        -3.5657235647        1.7809518413        7.1877766885
 H        -2.5829337536        1.3294363033        5.6107284781
 H        -5.3245210189       -2.4911686159        6.7186826159
 H        -4.8672930800       -1.6006628100        8.1944163056
 H        -4.0307903445       -3.1212321342        7.7250683675
 H        -2.4898172156       -1.5214937927        8.6689775272
 H        -1.6819260923       -0.1370959320        7.7032602607
 H        -3.1920289229        0.0936468620        8.4668593705
 H        -4.4200909030        3.4431028110        5.6077853767
 H        -5.5006046157        2.1858283206        5.1502647068
 H        -5.9775941699        1.6627221641        1.7900488340
 H        -6.7833482015        3.1228329323        1.6003900829
 H        -5.9026147162        5.4758983857        2.7656555878
 H        -5.3610712460        5.2688511127        4.4373485711
 H        -6.3478181034        3.9279330645        3.8150262660
 H        -2.5168691558        4.6676788237        2.3104720093
 H        -3.5077574411        5.9773826746        2.8880555805
 H        -2.6973743704        4.8651062774        3.9771218828
 H        -7.0046485144        2.0920568734       -0.4857284198
 H        -5.4194714306        2.9888848186       -0.7787902052
 H        -7.0958235901       -0.6834139101       -4.7244600074
 H        -7.3402231261       -1.7288681759       -3.4534671265
 H        -8.3507245455       -0.3285139691       -3.6262120062
 H        -5.4149322404       -2.5001413035       -1.6680438509
 H        -5.0503847538       -1.9035590824       -0.1744350326
 H        -4.0534041145       -1.3193109998       -1.5931082653
 H        -7.8548003715       -1.2766364385       -0.5479564494
 H        -7.0312744015       -0.2782293279        0.7226974793
 H        -8.0114127674        0.3651797948       -0.5323604699
 Na       -2.1863408105        1.4227198293        1.4849314916
