155

 C         7.9578434633       -3.4551910085       -8.5257170779
 C         7.9308209470       -3.6735267405       -7.0436169107
 C         6.7555074475       -4.6199444786       -6.4456755377
 C         5.5025770674       -3.6891875048       -6.4265380604
 C         4.9938301184       -3.1979588467       -5.0875361224
 C         6.4123762466       -5.7819235686       -7.4162799468
 C         7.1464357217       -5.2767887457       -5.0877629632
 O         8.7418025781       -3.2176581045       -6.2770587956
 O         4.8084598822       -3.4732777200       -7.3840080472
 C         4.0017981119       -2.0131177705       -5.2976698093
 C         3.5114522113       -1.2597614277       -4.0109870361
 C         2.2515674496       -1.7988169414       -3.2138120805
 C         1.4599034248       -0.5161857781       -2.7655502165
 C         1.6301405506        0.6898862359       -3.8571643693
 O         4.2104935103       -0.4159693859       -3.5167156403
 O         0.7543374042       -0.3975930879       -1.8085266225
 C         1.2726017091       -2.7409488794       -3.9725859869
 C         2.8411653092       -2.4507059339       -2.0112654790
 C         0.4390394699        1.6008987354       -3.7845694696
 C         0.7509253064        2.9560367081       -3.1595015863
 C        -0.3316662011        3.5274795701       -2.1495790852
 C        -0.4896759252        2.6758216544       -0.9497245887
 C         0.4905334576        2.7888210069        0.2521320130
 C        -0.1007437621        5.0536999625       -1.7654738489
 C        -1.7070662495        3.4226951795       -2.8813366289
 O         1.7223062249        3.5512548521       -3.4927118315
 O        -1.3991838400        1.8806053170       -0.7937993579
 C         1.9935941421        2.3669274968        0.1161491737
 C         2.7524698714        2.4150434019        1.4962572069
 C         3.8961252592        1.4975613898        1.7278595167
 C         3.4373847308        0.0179774050        1.8114480602
 C         2.4300349517       -0.4293271421        2.9741429114
 O         2.5451067226        3.2463651505        2.2901346946
 O         3.7689471103       -0.8352544522        1.0187436185
 C         4.9538627862        1.5405720331        0.5823799175
 C         4.6037512104        1.7694676049        3.0273175305
 C         1.4326178382       -1.4536493289        2.6043946288
 C         0.1498148285       -1.0915290421        1.9015691911
 C        -0.9373891630       -2.3249050215        1.6123155817
 C        -2.2634137410       -2.0214792546        2.4071315112
 C        -2.9005199009       -3.0406345481        3.3257207047
 C        -1.3121764979       -2.1899423989        0.1602030501
 C        -0.2204097362       -3.6903591889        1.8106483870
 O        -0.2938562350        0.0037133012        1.7407324601
 O        -2.8272368867       -0.9518836101        2.3733630479
 C        -3.7351800792       -2.3986087869        4.4630047427
 C        -2.9760862426       -1.5551850705        5.4669576848
 C        -3.7420242316       -0.9668150547        6.7911850573
 C        -4.7323614949        0.0952480836        6.1698754817
 C        -4.4179234702        1.6288434890        6.4509567787
 O        -1.7826905949       -1.3518923371        5.3386114596
 O        -5.7490411936       -0.1574447719        5.5974281875
 C        -4.6325772813       -2.0276086906        7.3513207535
 C        -2.6235703987       -0.5208342805        7.7759027293
 C        -5.0097408437        2.6776511244        5.4362856010
 C        -4.2325317713        2.7805301884        4.0955204601
 C        -4.5606915104        3.8834154066        3.0621327507
 C        -4.6418276964        3.1465248897        1.6627255456
 C        -6.0776808860        2.6697986747        1.2888188873
 C        -5.7821245311        4.6904800424        3.5671647122
 C        -3.3263115444        4.7636282042        3.1993884305
 O        -3.4378918054        1.8769632715        3.8077704569
 O        -3.6687266352        3.1346965360        0.9344542721
 C        -6.0749948932        2.1973226850       -0.1716213766
 C        -5.3773046480        0.8663941674       -0.2360055383
 C        -5.7014238004       -0.2677493917       -1.3685320145
 C        -6.4115010605        0.2684242408       -2.6251713067
 C        -6.8894185663       -0.7970575854       -3.6727694548
 O        -4.4443948602        0.4900844945        0.4588500741
 O        -6.6310160226        1.4659578253       -2.8648393241
 C        -4.4652632550       -1.2391487649       -1.6601385721
 C        -6.6871508881       -1.1817430679       -0.4873479724
 H         7.0379251956       -3.8168439647       -8.8808362872
 H         8.0707840912       -2.4524638478       -8.7867244085
 H         8.8151323459       -3.8938503999       -9.0962024721
 H         4.4921057116       -4.0483053330       -4.6644228492
 H         5.8074215033       -2.8439713680       -4.4660926762
 H         5.5352645385       -6.4175229383       -7.1438991282
 H         7.3330634493       -6.3712947736       -7.5745344372
 H         6.0454074002       -5.2804250783       -8.3480853223
 H         6.4032323674       -5.9508385909       -4.6864026437
 H         8.0243617446       -5.9128269728       -5.2684254930
 H         7.2850585561       -4.5376255116       -4.3018267921
 H         4.6108038895       -1.3634828367       -5.8793070260
 H         3.2385213877       -2.5163489656       -5.9660565962
 H         2.5393179114        1.2635410971       -3.6187952546
 H         1.9792611713        0.2598037987       -4.8233681511
 H         0.4094657886       -2.8994527647       -3.3547565370
 H         1.7926654322       -3.6395542783       -4.0218204835
 H         0.9992213380       -2.2946040084       -4.9464572953
 H         2.1407726291       -2.9307801952       -1.3708234313
 H         3.5482580252       -3.2251506091       -2.3111524731
 H         3.3963093159       -1.6816767057       -1.4772628854
 H        -0.4645825393        1.1917208642       -3.3833403635
 H         0.1495198067        1.7514977141       -4.8741385347
 H         0.5266357562        3.7751105725        0.6310247116
 H         0.0857271607        2.1063392709        1.0011760422
 H        -0.8735489171        5.4381240348       -1.0646755914
 H        -0.0734435467        5.5294909357       -2.6752848899
 H         0.8183252196        5.3509588478       -1.2947858403
 H        -1.6950685461        4.0886977550       -3.7464476126
 H        -1.9250163936        2.3985789103       -3.2033169466
 H        -2.4620163979        3.7907907774       -2.2085442953
 H         2.0588806665        1.4098915960       -0.3390258935
 H         2.5413124178        3.0369964259       -0.5224195514
 H         3.1579792788       -0.8672992336        3.5998362318
 H         1.9877343917        0.4649813550        3.4865469622
 H         4.4812342453        0.9670160537       -0.2372054204
 H         5.8796212604        0.8783029372        0.8530958289
 H         5.2035944495        2.5636014900        0.1795223800
 H         5.6344723481        1.4110029698        3.1234089028
 H         4.5755534208        2.8623235490        3.2322882706
 H         4.0705191338        1.3224815196        3.9038638863
 H         1.2365817721       -2.0468301351        3.5050166068
 H         1.8630283318       -2.2853217643        2.0493508796
 H        -3.5959946638       -3.6771957672        2.7419153770
 H        -2.1435853028       -3.6265416574        3.7338055789
 H        -0.5551169392       -2.5519027153       -0.5480682158
 H        -1.7074386393       -1.2282054900       -0.0752900712
 H        -2.1179762619       -2.9313605452        0.0236027481
 H        -0.8657086593       -4.5385909199        1.4982587803
 H         0.6408293788       -3.7847177547        1.2168641279
 H        -0.0405169429       -3.8941084445        2.8777195876
 H        -4.4684170990       -1.6177470619        3.9774271338
 H        -4.4071563676       -3.1140175277        4.9641946776
 H        -4.9192709377        1.7554551958        7.3859973102
 H        -3.3156252197        1.7678282987        6.5204436353
 H        -5.3131839829       -2.2130592311        6.4896630691
 H        -5.1067308230       -1.7335165299        8.3368960306
 H        -4.2122631463       -3.0161641327        7.4802738260
 H        -2.1726731188       -1.3611117842        8.3527519131
 H        -1.8300804691        0.0329947853        7.2463648236
 H        -3.0741085616        0.0746953700        8.5051167299
 H        -5.0884247730        3.6301941596        5.9395908409
 H        -6.0187357064        2.4445175813        5.0082206564
 H        -6.3569599858        1.8191382000        1.9847659533
 H        -6.8455510583        3.4091565039        1.3416378955
 H        -6.2446887982        5.2765376481        2.7645263468
 H        -5.4934573418        5.1555035368        4.4702767726
 H        -6.6465763538        3.9609439642        3.7595100075
 H        -2.5137062008        4.3049576147        2.7221537190
 H        -3.4936054122        5.7691916834        2.7706865928
 H        -3.0359106293        4.8718814215        4.2199180270
 H        -7.0624816716        1.9589472812       -0.5344044594
 H        -5.5827407306        2.8577810197       -0.8897992002
 H        -6.1483677223       -1.1634660197       -4.3216615645
 H        -7.3988468968       -1.6428447169       -3.1802047472
 H        -7.5148349588       -0.4213916836       -4.4316569135
 H        -4.8300007433       -2.1337956193       -2.2462468329
 H        -3.8842599424       -1.3332745647       -0.7777406697
 H        -3.7345470302       -0.9603517262       -2.4317968019
 H        -6.2933588415       -1.2657242800        0.4929200230
 H        -7.6461498342       -0.6740376071       -0.2932300657
 H        -6.8730016549       -2.1957770334       -0.9230440973
 Na       -2.2170577689        1.2365338019        1.5325054755
