155

 C       -10.5947479008       -3.4128860290        2.0474095071
 C        -9.2249348819       -2.7577939397        2.3939245573
 C        -8.4346012088       -1.9329287165        1.1970686348
 C        -7.0440839213       -2.5443048634        1.1512885437
 C        -6.0398246212       -2.0354934029        2.2793802000
 C        -9.1052087627       -2.0907831798       -0.1417374735
 C        -8.4253589024       -0.3930993514        1.5803731587
 O        -8.8673421500       -2.7252820988        3.5505511443
 O        -6.6386660957       -3.3179582705        0.2894874729
 C        -5.1108417374       -3.1268000548        2.8975026431
 C        -3.6444418051       -2.9126778423        2.5002862714
 C        -2.7448059991       -4.1369031041        2.0329203932
 C        -3.0479236070       -4.4471578040        0.5537514282
 C        -3.3309001964       -3.2447110756       -0.3221787700
 O        -3.1923155031       -1.8127013521        2.6127441781
 O        -2.8994234816       -5.5661618596        0.0319817778
 C        -1.2364308472       -3.5777839655        2.0237255872
 C        -2.8309901862       -5.3440880712        2.9511413733
 C        -3.0594544160       -3.4000402902       -1.7123625929
 C        -2.1467357356       -2.2857612406       -2.1855053139
 C        -1.7722006513       -2.2120057460       -3.8031077647
 C        -2.4612575574       -0.8627250331       -4.2129821416
 C        -3.6303091860       -0.9148291940       -5.0526893510
 C        -0.1826181838       -2.2086280632       -3.8285674804
 C        -2.4018819864       -3.4687328841       -4.5703034711
 O        -1.7039989900       -1.5171799186       -1.4291021003
 O        -2.1246986494        0.2277580924       -3.7547663578
 C        -4.4949723944        0.3808558816       -5.1039704870
 C        -5.6169611589        0.3440112216       -4.1047626876
 C        -6.3948582391        1.6405999736       -3.7644532942
 C        -6.0151881421        2.2015512444       -2.3428369850
 C        -5.8002601219        1.1849046752       -1.2215633676
 O        -5.8856947421       -0.6848834713       -3.4551270112
 O        -5.6898215581        3.3384430699       -2.1743841551
 C        -6.1970905179        2.8485069749       -4.7508392369
 C        -7.9512659770        1.4089770311       -3.4967371790
 C        -5.0600161249        1.7938278259       -0.0058541723
 C        -3.5052543030        1.7141267581       -0.2148586843
 C        -2.6503686633        2.3323152558        1.0595233396
 C        -1.1555881316        2.3931941272        0.5692990446
 C        -0.4793395755        3.7887306832        0.3445485925
 C        -3.2233373732        3.6709314576        1.6374285488
 C        -2.5599803179        1.1509261192        2.2215085526
 O        -2.9966633482        1.2022612907       -1.1905536011
 O        -0.4927095150        1.3602910511        0.3270204611
 C         1.0371800819        3.8034012514        0.2659277431
 C         1.4182405797        2.7239705538       -0.8033973741
 C         2.7712554759        2.0271722765       -0.7477242083
 C         2.5894637054        0.4329520745       -0.9193326062
 C         3.6499551315       -0.3785076128       -0.1534608590
 O         0.7066890330        2.5171883900       -1.7536296909
 O         1.7654398409       -0.0793906013       -1.6368964417
 C         3.4283471243        2.4177494623       -2.1506752082
 C         3.7114616560        2.5654068659        0.4120003311
 C         4.9596759935       -0.3928502613       -1.0031856478
 C         5.9589094079       -1.1502478942       -0.1154105504
 C         7.4402631846       -0.6778238270       -0.2213370704
 C         7.5537094716        0.5048005731        0.7224531148
 C         8.8819879862        0.7693959174        1.3912354751
 C         8.2500761841       -1.8960146933        0.3026215621
 C         7.6959647211       -0.4163670737       -1.7107201413
 O         5.5902431916       -1.8350370900        0.8408122197
 O         6.6418435564        1.3339153581        0.6214003234
 C         8.8809405425        2.0080534252        2.1437394540
 C         9.7525270871        2.0615923538        3.3778159582
 C        10.5913552737        3.3154336263        3.6983059571
 C        11.4584706690        3.6256830478        2.4114597913
 C        12.3111751342        2.3632288173        1.8516682999
 O         9.8731195485        1.0714211528        4.0689597447
 O        11.2608340379        4.6236626491        1.7594305807
 C         9.5332382747        4.4641120688        3.7677168865
 C        11.4315648604        3.1488436557        4.9467431101
 H       -10.5688128976       -4.2145167674        1.3128419662
 H       -10.8975072106       -4.0019629734        2.9227576528
 H       -11.4239174596       -2.7505186581        1.8753848565
 H        -5.3757763066       -1.2232241121        2.0901887433
 H        -6.6856096180       -1.7313088269        3.0120881875
 H        -8.6250622849       -1.4764982843       -0.8976557271
 H       -10.1714385402       -1.7899785684       -0.1706311151
 H        -9.1205850186       -3.1429972772       -0.3685458681
 H        -9.3839722684       -0.1437809308        2.0829577133
 H        -7.4882786748       -0.1558536989        2.1052006710
 H        -8.4393730797        0.3729165717        0.7226473832
 H        -5.2383471046       -2.8987657738        3.9333256838
 H        -5.4842772080       -4.1123872223        2.5344727135
 H        -4.3646046854       -3.1529488074       -0.1398893700
 H        -2.7620693384       -2.3445120322        0.1056340724
 H        -1.3405749743       -2.5074861231        2.1542569595
 H        -0.8541295985       -3.7943351617        0.9606022576
 H        -0.6918202221       -4.1478749797        2.8314157529
 H        -1.8792167703       -5.9217296972        2.8750520863
 H        -3.0388412308       -5.1390789635        4.0002910059
 H        -3.5542262947       -6.0677778459        2.5558069557
 H        -3.9076132554       -3.5407732621       -2.3726932352
 H        -2.5549066179       -4.3403228019       -1.8303473245
 H        -3.6018514620       -1.3974895117       -6.0240681993
 H        -4.1880060939       -1.5182813875       -4.3590583490
 H         0.1817239676       -2.1798495104       -4.8778721825
 H         0.1169355726       -3.1263500731       -3.3526315253
 H         0.1343772320       -1.3542069720       -3.2098495811
 H        -1.9625817692       -4.3399142598       -4.1377682606
 H        -3.4873879608       -3.6128288319       -4.5063566036
 H        -1.9884574204       -3.5667818533       -5.5608979222
 H        -3.9671523258        1.3037701974       -5.0202585779
 H        -4.8351037126        0.6079915539       -6.1658950611
 H        -6.8432670625        0.8170864781       -0.8525395143
 H        -5.3360072088        0.2925161147       -1.6387258916
 H        -5.2829651720        3.4444551069       -4.5796005005
 H        -7.1219813525        3.4427407257       -4.6867956200
 H        -6.2097542160        2.5281553281       -5.7996337662
 H        -8.4948883670        2.4060607214       -3.5780367667
 H        -8.2193348340        0.6984122335       -4.2536366769
 H        -8.1331001803        0.9172090935       -2.5280785876
 H        -5.3134914458        1.2779852327        0.9375337098
 H        -5.3906888486        2.8733284066        0.0417261722
 H        -0.9646403224        4.0871190288       -0.6156868621
 H        -0.6876449173        4.4923662165        1.0862196963
 H        -3.3453988134        4.4436482425        0.8921313343
 H        -2.5631348618        3.9375742574        2.5354912070
 H        -4.2342862414        3.5417965625        2.1022766149
 H        -2.1163596617        1.7263106422        3.1265980508
 H        -3.6065676222        0.8949225919        2.4658809086
 H        -1.9219415866        0.3015174490        1.9556244180
 H         1.4953425045        4.7387601188        0.0165131284
 H         1.3342482860        3.5635479301        1.3452201250
 H         3.8022849532       -0.1839083191        0.9041480603
 H         3.3170250892       -1.3924768706       -0.2178593696
 H         3.8887165769        3.4047380120       -2.0543013766
 H         2.6030502488        2.4936670895       -2.9654212547
 H         4.2077171274        1.7046243238       -2.5144591472
 H         4.7767267500        2.3807526064        0.1062365828
 H         3.6712240479        3.6883881831        0.5040602475
 H         3.4451917952        1.9238959027        1.2871822060
 H         5.2880098963        0.6374938773       -1.2473992208
 H         4.7006088845       -0.7789234520       -1.9386956665
 H         9.0803794758       -0.1814462103        1.9100112435
 H         9.5759616198        0.7882535577        0.4644619350
 H         8.1021083617       -1.9801998495        1.3669153047
 H         9.3850885757       -1.8282690276        0.0404861728
 H         7.8725085916       -2.6745026318       -0.3662074253
 H         8.7572218779       -0.5425022970       -1.9161611008
 H         7.0883865388       -1.0991265546       -2.2934624172
 H         7.5013134786        0.6500058781       -1.9395369204
 H         9.2160968218        2.7508207564        1.4070005604
 H         7.8645093063        2.3692911485        2.3054515886
 H        11.5555998621        1.7264323180        1.3294079418
 H        13.0411357383        2.7541690814        1.1353670795
 H        12.7469956189        1.8381857264        2.6877438915
 H         8.9390689709        4.4183656316        2.8095256841
 H         9.9300955165        5.4921485452        3.9950988550
 H         8.8031971844        4.3958321282        4.5904614910
 H        11.6236463126        4.1588982324        5.4408568772
 H        11.0273366961        2.4329213371        5.5983066137
 H        12.4412824497        2.7789393608        4.6523139795
 Na       -0.6572649611        0.6178168189       -1.8564147793
