155

 C         7.7964369313       -2.6004713337       -8.6770423610
 C         8.3549651486       -2.1717569333       -7.3098781608
 C         8.2688864262       -3.2639852419       -6.1299555081
 C         6.7351071488       -3.2559120759       -5.5327761893
 C         6.1656341482       -1.8973237456       -5.0763608647
 C         8.5946456579       -4.7192475505       -6.6306026382
 C         9.4174955103       -2.8962165949       -5.0715815694
 O         8.7954831993       -1.0922210120       -6.9350107134
 O         6.0094420084       -4.1991992647       -5.7117236728
 C         4.7098328814       -1.7795682243       -5.5349508253
 C         3.8413128871       -1.1684173115       -4.4503149265
 C         2.4415305785       -1.7858065829       -4.1154415299
 C         1.6442643091       -0.6604245753       -3.3582414928
 C         0.7790111853        0.3210992762       -4.1067416683
 O         4.1575488519       -0.1405292329       -3.9212774776
 O         1.5821876446       -0.6966105062       -2.1414747583
 C         1.8595027694       -2.4109758349       -5.3582885197
 C         2.7652122411       -2.8846670753       -3.0997212691
 C        -0.1397503131        1.2317680905       -3.2025800286
 C         0.1391867032        2.7624905502       -3.2223423245
 C        -0.6193231984        3.4355095241       -1.9032600359
 C        -0.3901311165        2.6350386789       -0.6053545682
 C         0.6819813141        2.7820771972        0.4664123761
 C        -0.0018700692        4.8606196285       -1.7441958035
 C        -2.1226978326        3.6234245845       -2.1713443446
 O         0.9156205819        3.4187950424       -3.8863243579
 O        -1.3036393456        1.8569641243       -0.2513808919
 C         1.7084984577        1.6829129835        0.7619441197
 C         2.6197084365        2.0857017456        1.8559383981
 C         3.5132378887        0.9041566894        2.6055412155
 C         2.5183423491       -0.1836081090        3.0114653071
 C         1.4680545937        0.3405537442        3.9976253263
 O         2.6605208173        3.2114035049        2.2615608111
 O         2.5599281516       -1.3102874895        2.5820262802
 C         4.4535631029        0.3202673207        1.5755294118
 C         4.3271317544        1.5643818920        3.7926005063
 C         0.4184751994       -0.7135062815        4.4287602959
 C        -0.4353778561       -0.9553469003        3.0647607294
 C        -0.7619790972       -2.3549891182        2.4018227846
 C        -2.3688985493       -2.3987836358        2.6505500056
 C        -2.9451638801       -3.2796638000        3.7366100201
 C        -0.3304840599       -2.2577163122        0.8288593075
 C         0.0738244707       -3.4732261669        3.0999310371
 O        -0.8031222086        0.0530560761        2.4727443704
 O        -3.0896605305       -1.6803681722        2.0003062949
 C        -4.0422185984       -2.5569345172        4.5767858537
 C        -3.4461240469       -1.6802173331        5.6950486507
 C        -4.4627423305       -0.9772044494        6.5930827610
 C        -4.6335929786        0.5056148098        5.7813086204
 C        -3.6390084262        1.6910653741        6.0318256316
 O        -2.2457907995       -1.6920491332        5.8133898679
 O        -5.4645142194        0.5046815706        4.9018513323
 C        -5.8210330264       -1.6664454686        6.4992382146
 C        -3.8245931888       -0.9065793215        7.9882184096
 C        -3.9311476048        2.8398792175        5.0083900902
 C        -4.0658462351        2.3871120739        3.5718208853
 C        -4.5200092274        3.5531813363        2.5739799924
 C        -5.1207861688        2.9657498109        1.2002013748
 C        -5.8484089372        1.6379112009        1.2105330674
 C        -5.5283120856        4.5815278496        3.1621095726
 C        -3.1689466679        4.2171447513        2.1879140473
 O        -3.6131904123        1.3432276298        3.1102583964
 O        -5.1628652579        3.6653239530        0.2561894849
 C        -6.2854009200        1.0392311061       -0.0840274816
 C        -5.3090493131       -0.0017371005       -0.8197586157
 C        -5.7826599691       -0.6459375478       -2.1518338415
 C        -6.2070834752        0.4525672777       -3.2602241812
 C        -6.1887135941       -0.0364430256       -4.6824828653
 O        -4.1987507954       -0.2972299037       -0.4207043394
 O        -6.6418223213        1.4676443470       -2.8537112863
 C        -4.6261443611       -1.6026916861       -2.7376170199
 C        -7.0802088284       -1.5142334186       -1.8118243066
 H         7.4683113779       -1.7613847656       -9.2152088260
 H         8.5327252582       -3.1027847280       -9.2200530438
 H         6.8899722729       -3.2811341757       -8.6936739543
 H         6.1405745234       -1.7079675425       -3.9655432733
 H         6.7385590963       -1.1405232737       -5.5880872684
 H         8.9509407443       -5.1385963458       -5.7020712999
 H         9.4087680260       -4.7559264850       -7.4168707512
 H         7.7461386951       -5.2794306886       -7.0453726708
 H         9.3870029484       -3.5901392817       -4.2351361860
 H        10.3949239479       -2.9415180719       -5.5029151514
 H         9.3335221787       -1.9027717863       -4.6670277705
 H         4.6637327387       -1.2587167219       -6.5160584203
 H         4.3183594849       -2.7276086484       -5.6527719706
 H         1.4994793909        0.9714296498       -4.6695504504
 H         0.1267861897       -0.1940570676       -4.8796331008
 H         0.7831751729       -2.5917998851       -5.2839759192
 H         2.3622065508       -3.3652456921       -5.7510083608
 H         1.8347877932       -1.6174134960       -6.1146466924
 H         2.0184113432       -3.2174358168       -2.5022391300
 H         3.0492103881       -3.7191843268       -3.6566142846
 H         3.5924632222       -2.5564038792       -2.4980794835
 H         0.1582795199        0.9454656950       -2.1654932243
 H        -1.2165552761        0.9850404364       -3.3945785955
 H         1.1764051508        3.7455207986        0.3479204968
 H         0.0820211921        2.8812494913        1.3496521581
 H        -0.5142256954        5.2922307895       -0.8856638354
 H        -0.2257375210        5.3844745062       -2.6417939241
 H         1.0145226456        4.7702571470       -1.4810960774
 H        -2.3211931103        3.7549647956       -3.2362166508
 H        -2.6522308613        2.7386042887       -1.8732920494
 H        -2.6705806416        4.4764775876       -1.7171652104
 H         1.2051962079        0.7776673631        0.9392783608
 H         2.3070646123        1.4312475606       -0.1211429623
 H         1.9054688226        1.0790728907        4.7979160391
 H         0.9306421214        1.1193147324        3.4954947561
 H         3.9853413957       -0.3866742040        0.9045026679
 H         5.3125005236       -0.1106334950        2.2007607356
 H         4.9105583323        1.0990357799        0.9306817765
 H         5.2265176081        0.9973885780        3.9853563098
 H         4.5130109111        2.5458513476        3.4508424089
 H         3.7027093473        1.4732684467        4.6881663854
 H        -0.2763470558       -0.2535349053        5.1342533085
 H         0.8258606554       -1.5866533370        4.8605382254
 H        -3.3082924145       -4.2030222466        3.2938688725
 H        -2.2336659064       -3.6220050515        4.5594763041
 H        -1.2137201557       -2.0978647061        0.2868472331
 H         0.2034896762       -3.1998786197        0.5655151516
 H         0.3019273884       -1.4175137001        0.7460391835
 H        -0.1570796471       -4.3934823946        2.6165750559
 H         1.2198713835       -3.3224885911        3.0220416306
 H        -0.1711636001       -3.6135623821        4.1479869264
 H        -4.6974192370       -1.9092665570        4.0026801795
 H        -4.6364135039       -3.3845976105        5.1055201548
 H        -3.6605386269        2.0183643137        7.0706841810
 H        -2.6680305209        1.3119507422        5.7629064773
 H        -6.2332223037       -1.3991634739        5.5451556688
 H        -6.4127412149       -1.1225424121        7.2363575761
 H        -5.6585929221       -2.7904945668        6.7344173215
 H        -3.9743257200       -1.6975759237        8.6819093774
 H        -2.7342750403       -0.8360189844        7.8299992536
 H        -4.1859548574        0.0706233640        8.4958671748
 H        -3.0457194134        3.4780224403        5.0598856976
 H        -4.8089639991        3.3426471707        5.3552937352
 H        -5.1539887408        0.8892477975        1.7450395206
 H        -6.6504528861        1.6884417119        1.9402707785
 H        -6.1546074727        4.9147743315        2.2792755799
 H        -5.0775439112        5.5596698539        3.5154780862
 H        -6.2047941676        3.9819702309        3.7669031511
 H        -2.4034170124        3.3895060588        2.0570195735
 H        -3.2924975310        4.7938487695        1.2959790369
 H        -2.8899700948        4.8187779709        3.0753357856
 H        -7.2780832086        0.5098314208        0.0419925841
 H        -6.4911253149        1.7203015966       -0.8960824989
 H        -7.0797996081       -0.6937717837       -4.7979047213
 H        -6.2864669721        0.7328218611       -5.4413189327
 H        -5.3277587340       -0.6945214522       -4.8805012419
 H        -4.9052793528       -1.8746984964       -3.8132474373
 H        -4.4002652812       -2.3097584904       -1.9857000271
 H        -3.7993402255       -0.9521394167       -2.7637053105
 H        -7.2008918728       -1.5154726414       -0.7203717105
 H        -7.9204222970       -1.0858711422       -2.3431866599
 H        -6.8355672354       -2.4889248871       -2.2507593197
 Na       -2.7601200037        0.4455099917        1.1355786390
