155

 C         7.9065194578       -2.6999242252       -8.6510751518
 C         8.4421637714       -2.0843785173       -7.3221332358
 C         8.5418028492       -3.0852869223       -6.0847640046
 C         6.9653729013       -3.1781437034       -5.5331291507
 C         6.2920828080       -1.8609583022       -4.9621735975
 C         8.8657101707       -4.5281291341       -6.5319129263
 C         9.4361954299       -2.5650167517       -4.9848199830
 O         8.6472262171       -0.9027341072       -7.1415982293
 O         6.3796607395       -4.2300209959       -5.7387528884
 C         4.8081900527       -1.8740878875       -5.4640188471
 C         3.8222857256       -1.0882392934       -4.5130226305
 C         2.3738468095       -1.7766493700       -4.1848077694
 C         1.5457211235       -0.7618693758       -3.4304218826
 C         0.9670299441        0.5024942057       -4.1060550940
 O         4.1166653337       -0.0799047608       -3.9368891016
 O         1.3960414689       -0.7486803595       -2.2392604647
 C         1.5706669151       -2.2490014031       -5.4093324565
 C         2.6941332605       -2.9527532352       -3.2557218059
 C        -0.0826515340        1.1307036899       -3.1627817673
 C         0.1257004890        2.6959357135       -3.1244912635
 C        -0.5125752300        3.4330306040       -1.7954167720
 C        -0.4179123993        2.6149880618       -0.6145765008
 C         0.8858167888        2.8872611768        0.3304101520
 C         0.0945852804        4.8887343371       -1.6571223187
 C        -1.8636015473        3.5445434950       -2.3272853707
 O         0.4088046297        3.3222110288       -4.0712462190
 O        -1.2375762764        1.7805732481       -0.3204154486
 C         1.6995838836        1.6754855965        0.8884303371
 C         2.7030400245        2.0724361890        1.9806765649
 C         3.5613409832        1.0481973620        2.6508348580
 C         2.4682639303        0.0386371773        3.2548215210
 C         1.3775318289        0.3584806397        4.2996676089
 O         2.6795076486        3.2181889165        2.4615856910
 O         2.5281115388       -1.0878893514        2.7965502817
 C         4.5940090869        0.3681999622        1.7410238488
 C         4.3146783569        1.6434649417        3.8748995648
 C         0.4126252341       -0.7545513113        4.2784822304
 C        -0.3666452257       -0.8594798937        2.9418168321
 C        -0.7715284254       -2.3612423148        2.4788934101
 C        -2.2944061355       -2.4819540219        2.7142713725
 C        -2.8949678940       -3.4608313325        3.8110595346
 C        -0.5939150631       -2.5476228519        0.9497851980
 C        -0.0343919475       -3.5261091616        3.1764956518
 O        -0.8041673144       -0.0018859014        2.2353494363
 O        -3.1324345231       -2.0182460453        1.9458448809
 C        -4.0209588888       -2.7743695013        4.5250065133
 C        -3.5278715697       -1.7797485947        5.5689494961
 C        -4.4968750932       -0.9163265070        6.5097717970
 C        -4.7487366417        0.4826975684        5.8082989125
 C        -3.8246785688        1.7500939903        6.1907355590
 O        -2.3547748761       -1.5860146938        5.8212252637
 O        -5.5426593395        0.5673039431        4.9067317423
 C        -6.0190880431       -1.4468968111        6.7046820612
 C        -3.9433924764       -0.7111253302        7.9302975457
 C        -4.1016857248        2.8945679381        5.2129821814
 C        -3.9234726222        2.4406156014        3.6658334423
 C        -4.4495233826        3.4628201770        2.5739211675
 C        -5.0079143810        2.7101126477        1.2586986539
 C        -5.6169938288        1.3447467141        1.2578487708
 C        -5.5274643396        4.5168546956        3.0434305270
 C        -3.2502018029        4.2155244793        2.0147474799
 O        -3.4024078965        1.3808124412        3.3346286090
 O        -5.2145756839        3.3258609200        0.1887080565
 C        -6.2284038427        1.0418820205       -0.1470801917
 C        -5.3332987685        0.0077674634       -0.8859185560
 C        -5.9245851546       -0.6882259499       -2.3052081940
 C        -6.2561510324        0.4426857477       -3.3434965825
 C        -6.2711724750        0.1142868084       -4.8701850308
 O        -4.2128316038       -0.3519837376       -0.5228146844
 O        -6.4594043267        1.6064733513       -2.8990519448
 C        -4.8653419316       -1.6718703203       -2.6918191830
 C        -7.2934430881       -1.4799322120       -1.9957744765
 H         7.7969696625       -2.0300450223       -9.5488795703
 H         8.3606836146       -3.6604585634       -8.9883131018
 H         6.9613084349       -3.0695860536       -8.4331748948
 H         6.2293004603       -1.8420944441       -3.8970347183
 H         6.8018480288       -0.9680100333       -5.3863636263
 H         8.6435181779       -5.1964634545       -5.6662825932
 H         9.8774459662       -4.6546369499       -6.8432338682
 H         8.2755091458       -4.7070592312       -7.4230048663
 H         9.5981328326       -3.4118894643       -4.3541036720
 H        10.3567793467       -2.0745780770       -5.3434150857
 H         9.0317175305       -1.7770034380       -4.3733485314
 H         4.7520309921       -1.2743296070       -6.3805117364
 H         4.3723045487       -2.9249689755       -5.7703234051
 H         1.6692922367        1.2894568098       -4.2635277166
 H         0.6153667061        0.3205277144       -5.0918398248
 H         0.5213192017       -2.4469461714       -5.2306089752
 H         2.0106073814       -3.1354956862       -5.7168149332
 H         1.5969485169       -1.5984008272       -6.2482555283
 H         1.8112366958       -3.6703757088       -3.1775575942
 H         3.5697905423       -3.5701287023       -3.6287915300
 H         2.8167108301       -2.5401342484       -2.2574953076
 H         0.0914427950        0.5903409871       -2.2079393378
 H        -1.1400984395        1.0510909203       -3.4473134986
 H         1.5473973857        3.6035879968       -0.2115190802
 H         0.4271454908        3.4831500612        1.1617432775
 H        -0.1344201450        5.2954577523       -0.7046598162
 H        -0.4055651026        5.5047452956       -2.5001206471
 H         1.1753426956        4.8221475744       -1.8748536130
 H        -1.9179544223        3.7830072800       -3.3770295621
 H        -2.3968224467        2.5824042670       -2.1810193156
 H        -2.4748830650        4.2593085486       -1.8336546599
 H         0.8699162730        1.0273211250        1.3310430798
 H         2.0862109664        0.9839118084        0.1184516709
 H         1.7368185857        0.5774419292        5.2426136096
 H         0.8837110435        1.3655067769        4.0739451950
 H         4.1354086097        0.0082327189        0.7700410902
 H         5.2357977228       -0.3264157729        2.2641261305
 H         5.2696543646        1.2009770390        1.4373530105
 H         5.2768321714        1.1022041698        3.8954279032
 H         4.5860329251        2.6242707133        3.4402644307
 H         3.8874507021        1.4147428905        4.8554029412
 H        -0.3022293832       -0.7217109634        5.1011467980
 H         0.9857572881       -1.7169798061        4.3790132684
 H        -3.3976674138       -4.2773054593        3.2143034771
 H        -2.3015712080       -3.9416010020        4.5414437842
 H        -0.8675619695       -1.6007786946        0.4154631992
 H        -1.3889198729       -3.2238839056        0.6799887057
 H         0.4565056667       -2.8726123321        0.7883776888
 H        -0.4983373910       -4.4852791751        2.8681153429
 H         0.9420488758       -3.5631708418        2.8373473964
 H         0.0741290350       -3.4501608115        4.2703158701
 H        -4.4833456665       -2.1161003650        3.7824216931
 H        -4.6720020221       -3.4560828705        4.9636084187
 H        -4.1396417106        2.0453393673        7.1996067605
 H        -2.7596385825        1.4623014087        6.1134087214
 H        -6.6240402908       -1.3460997462        5.7949757159
 H        -6.4912593195       -0.7574634818        7.3861996136
 H        -5.8957222322       -2.3442434866        7.1871244889
 H        -3.7428426159       -1.7024186656        8.3623092201
 H        -3.0722613538       -0.1238736030        8.0488043815
 H        -4.7073375112       -0.3444910916        8.5316877581
 H        -3.5282879025        3.7911582008        5.4321420202
 H        -5.1763283252        3.0816370134        5.4033637775
 H        -4.8688433833        0.7308309444        1.7098456140
 H        -6.4319177794        1.3912440155        2.0101194346
 H        -5.2265687095        5.3977327289        2.5241256097
 H        -5.2895434158        4.7687850007        4.0474881777
 H        -6.5528790733        4.2176698890        2.8687645239
 H        -2.6345021977        3.5695455563        1.4726381385
 H        -3.7897828074        4.8166066305        1.2669433665
 H        -2.7542564919        4.8028032013        2.7489747820
 H        -7.2246234268        0.6346713912       -0.0959419412
 H        -6.3463981576        1.9604833821       -0.8143530460
 H        -7.1676896653       -0.4002702372       -5.1327855332
 H        -6.1511792535        0.9370514066       -5.5379699606
 H        -5.5183364303       -0.6229155917       -5.1264583620
 H        -5.2766133920       -2.3429115032       -3.3523885071
 H        -4.6169786016       -2.1481107511       -1.7296350074
 H        -4.0170181581       -1.0694572244       -3.0426869644
 H        -6.9416155461       -2.2095001608       -1.2644123315
 H        -8.0962238180       -0.7722210578       -1.7942612429
 H        -7.5030875368       -2.1087265630       -2.8683149629
 Na       -2.5723446763        0.3221592146        1.0198345623
