155

 C         9.2709866946       -2.5851478381       -8.4480869571
 C         8.7042509397       -1.5941479806       -7.4263306198
 C         8.8124129331       -1.8855048251       -5.9030895553
 C         7.3850246601       -2.4996151942       -5.5805866383
 C         6.2197188760       -1.6646719574       -5.1759214081
 C         9.9185727314       -2.9119080123       -5.5206647208
 C         9.0170145254       -0.6302739812       -5.0397476872
 O         8.1132406681       -0.6498133905       -7.9076785865
 O         7.2206458822       -3.7133687324       -5.6999818597
 C         4.9207209441       -2.4934589114       -5.0367884086
 C         3.9005670573       -1.5274091306       -4.3929837666
 C         2.3076957149       -1.9217121514       -4.5393536508
 C         1.4792920450       -1.2506820065       -3.3417799055
 C         1.4987944183        0.2831646258       -3.2150147829
 O         4.2078086696       -0.4364246804       -4.0223095668
 O         0.9304761341       -1.9137081392       -2.5103111967
 C         1.9492746869       -1.5860963147       -6.0400432359
 C         2.1673292847       -3.4603148387       -4.1031702081
 C         0.0524241426        0.9213302741       -3.0831881559
 C         0.0617469965        2.4417914539       -3.0960788177
 C        -0.5844799455        3.2956270613       -1.8773810007
 C        -0.3220597655        2.6401826167       -0.5916299703
 C         1.1626409826        2.9233167362        0.0116783499
 C         0.0211141525        4.7019708890       -2.0503891849
 C        -2.0775981622        3.3772282409       -2.2661624792
 O         0.5356844560        3.0466919358       -3.9763834507
 O        -1.0422477692        1.7706579415       -0.0858092793
 C         1.7586376080        1.7716964040        0.9477364296
 C         2.3473965324        2.3549109310        2.2025586322
 C         3.3211009663        1.4492220638        3.0921968962
 C         2.5257039797        0.0498755432        3.2574461777
 C         1.4434240388        0.0255840327        4.4795667887
 O         2.0855464248        3.4933522945        2.5271637135
 O         2.7224536723       -0.9001991419        2.4699417329
 C         4.5627043056        1.0967824201        2.2779490429
 C         3.5823740823        2.1657444213        4.4008038052
 C         0.4650248993       -1.1910056113        4.3922810907
 C        -0.4606819016       -1.2298672246        3.1876439477
 C        -1.1663033720       -2.5004021041        2.7204964201
 C        -2.6649688864       -2.3204814807        3.0575511150
 C        -3.4134867626       -3.4870513981        3.8494966595
 C        -0.9365119918       -2.6120022867        1.1734853505
 C        -0.5003359182       -3.7069332079        3.4394028732
 O        -0.4524691565       -0.2873909756        2.4157797958
 O        -3.2877129673       -1.5038122796        2.4526663475
 C        -4.6311961661       -2.9332485439        4.5918170151
 C        -4.0640828559       -1.9471014939        5.6435041634
 C        -5.0285231099       -0.9097378083        6.4889232600
 C        -5.2721063784        0.3005303639        5.5259590189
 C        -4.2380455702        1.4741929909        5.5097480082
 O        -2.8294740416       -1.8354008850        5.7851922153
 O        -6.3187358305        0.5120549606        4.9762325184
 C        -6.3775875649       -1.5536252843        6.7631655710
 C        -4.3264628716       -0.4361414103        7.8133967619
 C        -4.4408144348        2.5914207262        4.5606865927
 C        -3.7045419555        2.4292583000        3.2641144772
 C        -4.2314691221        3.3185087058        1.9628755858
 C        -4.6003073793        2.2004966470        0.8788848738
 C        -5.7276261045        1.3309205666        1.3627247447
 C        -5.4108126438        4.2620185374        2.3166869393
 C        -2.9562730111        4.0758231498        1.4050442456
 O        -2.8374402470        1.6279669744        3.1586221516
 O        -4.0443915729        1.9491898233       -0.1881371981
 C        -6.3492395747        0.3404261018        0.2437651722
 C        -5.3946685394       -0.3832064144       -0.7112705141
 C        -5.8741417551       -0.7041277646       -2.2337301455
 C        -5.7646870361        0.6330590283       -3.0776026142
 C        -6.0920897795        0.7757961078       -4.6355652537
 O        -4.3482329533       -0.8492333821       -0.3662773770
 O        -5.3680682225        1.6904575835       -2.5649795394
 C        -4.8892830916       -1.6973249544       -2.9879703389
 C        -7.2910117421       -1.1898962808       -2.2536343886
 H         9.2025499776       -2.0404139969       -9.4276397120
 H        10.3674534547       -2.8163592106       -8.3038872381
 H         8.7491692000       -3.4676726874       -8.5709897129
 H         6.4741335327       -1.1442044649       -4.2247120409
 H         6.1899786665       -0.8705237347       -5.8979970728
 H         9.9912079054       -3.0864143795       -4.4312692934
 H        10.9097958850       -2.5655704618       -5.9017830194
 H         9.7388237918       -3.9581378837       -5.9240011072
 H         8.9271761694       -0.9366130642       -4.0103829176
 H        10.0228103282       -0.3335361728       -5.1154833841
 H         8.3040718395        0.1436788098       -5.2610455875
 H         4.5293999942       -3.0369407199       -5.9552581377
 H         4.9961625126       -3.2649375547       -4.2631638661
 H         2.1942389339        0.4460075666       -2.3939352395
 H         1.8810447766        0.7879306041       -4.0546906693
 H         0.9399266538       -1.8598123340       -6.2734402632
 H         2.5656221079       -2.1939060910       -6.6353191624
 H         2.0960095939       -0.5376913146       -6.3351887748
 H         1.0857031768       -3.6995124552       -4.1129540533
 H         2.6770136343       -4.0786630536       -4.8597540895
 H         2.6890742792       -3.5261715031       -3.1839934042
 H        -0.4641034062        0.4254050766       -2.2533756932
 H        -0.3670856430        0.4888445217       -3.9499341325
 H         1.8589272576        3.3190931954       -0.7324859767
 H         0.8992817549        3.8257473950        0.6440711124
 H        -0.4235704944        5.4857639865       -1.4789933061
 H        -0.0914746622        4.9497024431       -3.1612692169
 H         1.0677364709        4.7314433570       -1.7373917260
 H        -2.7953662913        3.4124913499       -1.4223878945
 H        -2.1293089330        4.2719046750       -2.8809445801
 H        -2.3828394194        2.5799410898       -2.9247206243
 H         0.9299340142        1.0351762662        1.1869138602
 H         2.5443543194        1.2261962303        0.3869606681
 H         2.0098822522       -0.1706667888        5.3422487714
 H         0.8382596693        0.8922920559        4.3984061930
 H         4.4085874903        0.6571404508        1.2198950623
 H         5.2002520252        0.3252520694        2.7493829314
 H         5.2394097975        1.9722409138        2.1037993403
 H         4.6307979454        1.9350872851        4.5706123628
 H         3.2823471471        3.2084510147        4.5415563442
 H         2.9410174249        1.7837944787        5.1976444111
 H        -0.1360656667       -1.3932515609        5.3371034719
 H         1.0648105617       -2.1003572966        4.2660256855
 H        -3.6889459475       -4.2357572292        3.1323304661
 H        -2.7971470855       -4.0161260577        4.5414003651
 H         0.1514964242       -2.4923879337        1.0514229048
 H        -1.5195244065       -2.0039177331        0.5282420001
 H        -1.2204341339       -3.6107211660        0.8595398354
 H        -1.1292914242       -4.6569391305        3.3634173344
 H         0.4252668989       -3.9375960871        3.0183512462
 H        -0.4376602591       -3.5116024545        4.5077057083
 H        -5.3477575643       -2.5351902007        3.8709119476
 H        -5.1487628040       -3.7216201490        5.1279055308
 H        -4.4741405579        1.9835592498        6.4978270240
 H        -3.1623962405        1.2536234447        5.5444273594
 H        -6.9397504546       -1.6868456665        5.8112181851
 H        -6.7762622788       -0.8629514224        7.5058817790
 H        -6.2690220743       -2.4989260102        7.1374900357
 H        -4.4640083622       -1.1510744053        8.6277080014
 H        -3.2542240912       -0.4688497614        7.6527615357
 H        -4.6012231096        0.4979044697        8.1110377618
 H        -4.2117084723        3.6000313167        5.0249891565
 H        -5.4974549398        2.7362021845        4.3832959721
 H        -5.4361109795        0.8738021797        2.3014454954
 H        -6.5858827707        2.0119383057        1.5244148882
 H        -6.0319834574        4.4280259358        1.4570126362
 H        -5.0403864310        5.1671870434        2.6722646195
 H        -6.0678693111        3.7355017104        3.0387997839
 H        -2.1647081991        3.3621554837        1.2532802679
 H        -3.3326727616        4.6167345630        0.5109288361
 H        -2.7185869001        4.8152351260        2.1579746756
 H        -6.8719964816       -0.3938822251        0.9001111067
 H        -7.0881019894        0.9126235153       -0.2996567759
 H        -5.2124309835        0.8883149233       -5.2162182837
 H        -6.7002021851       -0.0300368273       -5.1238345202
 H        -6.5705308186        1.7178841547       -4.7429623344
 H        -5.3071867526       -1.7833046045       -3.9422051254
 H        -4.8726484361       -2.5898226156       -2.3540033446
 H        -3.7896901436       -1.3880159969       -3.0676277044
 H        -7.4864875631       -2.1875647846       -1.9329332773
 H        -7.9690805837       -0.6636017754       -1.5819870878
 H        -7.5784913394       -0.9129188422       -3.2813203828
 Na       -2.5563336146        0.2247486308        1.3402906882
