155

 C         9.3746236142       -1.2439646970       -7.1960571481
 C         8.2441919924       -0.3053159847       -6.8351649330
 C         8.4331810290        0.5949731408       -5.6172195949
 C         7.9067618415       -0.3699811975       -4.5286359620
 C         6.3508764850       -0.6473255741       -4.5541000597
 C         9.8683328240        1.0398984060       -5.4145192733
 C         7.5039730892        1.8262479275       -5.4898254917
 O         7.1869800396       -0.2081674707       -7.4213040767
 O         8.6081308409       -0.9899462783       -3.7801531426
 C         6.2009090672       -2.1874468474       -4.5383754234
 C         4.7562767775       -2.6651264759       -4.4585499877
 C         3.6542455660       -2.4683719821       -5.5903898263
 C         3.0333563782       -1.0053677565       -5.2823818445
 C         2.5234283209       -0.8019015275       -3.7689827574
 O         4.3168646284       -3.2938596197       -3.5602478626
 O         2.9390249377       -0.1596945287       -6.1364331436
 C         4.1060334041       -2.6241660670       -7.1001572107
 C         2.6114875211       -3.6819788893       -5.3939473396
 C         1.1791053234        0.0199449276       -3.7374519840
 C         1.2162477127        0.8249122596       -2.3976428379
 C         0.1581183686        1.9952212448       -2.2141047498
 C        -0.4638567091        1.7236246420       -0.8316505917
 C        -0.1210594947        2.4436990246        0.4903400912
 C         1.0732884824        3.3482902438       -2.3724212689
 C        -0.9654362024        1.9627425627       -3.3131999701
 O         1.9543594529        0.6720569598       -1.4152434828
 O        -1.2643772908        0.8043945511       -0.7270510322
 C         1.0779674135        1.9154379540        1.2002233002
 C         1.0453822724        2.2700796654        2.6670306588
 C         2.2767694835        1.7803259660        3.5736202652
 C         1.9532081328        0.2362574691        3.6706699753
 C         0.9194305903       -0.3123349843        4.7285759342
 O         0.2985835199        3.1127142631        3.0509906200
 O         2.4883290753       -0.5693703329        2.9287604014
 C         3.5957619440        1.9887084248        2.8329575423
 C         2.2263248266        2.4740260335        4.9547759626
 C         0.3175444719       -1.7024950465        4.3202903501
 C        -0.7214067348       -1.4722960925        3.2568477157
 C        -1.6273844845       -2.5961263925        2.6308996912
 C        -3.0711757567       -2.2445149890        2.9357867669
 C        -3.7440321470       -3.0152595376        4.0497418633
 C        -1.3547520678       -2.6379976782        1.0878224130
 C        -1.1534810443       -4.0343610007        3.2034544592
 O        -0.6887762158       -0.3764744212        2.7106301147
 O        -3.6199014629       -1.2578432235        2.4745737970
 C        -5.0857382449       -2.3921550343        4.5718548296
 C        -4.7940611593       -1.7371850069        5.9815428519
 C        -5.8548387219       -0.8360968967        6.6427999022
 C        -5.6027034362        0.5034189581        5.7129680168
 C        -4.3032623305        1.3818012560        5.9845285685
 O        -3.6828114116       -1.7742514772        6.4669840705
 O        -6.2724281415        0.7112878999        4.7529477667
 C        -7.2997776055       -1.4107148485        6.5299134220
 C        -5.4244059663       -0.5068012524        8.0891614038
 C        -4.1827967527        2.5366013436        4.9904066488
 C        -3.9874959806        2.2566329279        3.4739360168
 C        -4.8441601733        3.0523675936        2.4433779221
 C        -4.6255012761        2.4956634951        0.9368141627
 C        -5.6793815629        1.5152392613        0.2991481709
 C        -6.3095918157        3.1434197173        2.8618501209
 C        -4.3944802195        4.5782091767        2.2670542706
 O        -3.0495981206        1.5834827755        3.1746262451
 O        -3.6334414058        2.7849903521        0.2904662343
 C        -5.5173575856        0.9795216385       -1.0849940683
 C        -4.8404684573       -0.3744057226       -1.2895962494
 C        -5.1029036331       -1.1149115537       -2.6440360401
 C        -5.3270107135       -0.2780870392       -3.9587294577
 C        -5.5362810956       -1.1540067459       -5.2423994860
 O        -4.1122702441       -0.7971436148       -0.3891114248
 O        -5.5449529268        0.9155970758       -3.9865166259
 C        -3.9598887974       -2.1858496538       -2.7094736006
 C        -6.4710313143       -1.8304964400       -2.5276380997
 H        10.2371106795       -0.6846842740       -7.3789668800
 H         9.6476680176       -1.8684517481       -6.3535053544
 H         9.1672547765       -1.8142918173       -8.1424869944
 H         5.9618347738       -0.0794267373       -3.7470349230
 H         5.9001456092       -0.2077945703       -5.4859955032
 H         9.9450880794        1.7342463134       -4.6022605449
 H        10.2262259259        1.5164965802       -6.3625886486
 H        10.5026346703        0.2177029474       -5.0079475406
 H         7.5220548439        2.2999402071       -4.5438111344
 H         7.8467150125        2.5851868620       -6.1430287038
 H         6.4882586525        1.5476015711       -5.6536652008
 H         6.6925964160       -2.4335707478       -5.4824741832
 H         6.7650420983       -2.6159568202       -3.6678808513
 H         2.2070956972       -1.7245325290       -3.3811290320
 H         3.2612844972       -0.4205776898       -3.0063628246
 H         3.3862770722       -2.1926700718       -7.7603720703
 H         4.3572992304       -3.6161514107       -7.4366178383
 H         4.9543369292       -1.9667797688       -7.2416984924
 H         1.7891311788       -3.5856119564       -6.1666484257
 H         3.1027770609       -4.7166188787       -5.3724845059
 H         2.0339989208       -3.7030729500       -4.4265933617
 H         0.3490137541       -0.6681021740       -3.5675263784
 H         1.1872548337        0.6256165167       -4.6269764269
 H        -0.1423402500        3.5137828624        0.4334458175
 H        -0.8759433164        2.1840769701        1.1993664695
 H         0.5494610898        4.2226678473       -2.1180002852
 H         1.2469059720        3.4613906848       -3.5113299000
 H         2.0357003942        3.2964903049       -1.9313477401
 H        -2.0048803003        2.0679649932       -2.8936999593
 H        -0.9273860133        2.7618956205       -4.0129401695
 H        -1.0911330482        1.0004377107       -3.8502810779
 H         1.1546782928        0.8201838360        1.0818863438
 H         1.9858878722        2.2619870855        0.7330951777
 H         1.4618207590       -0.3575809439        5.6952369947
 H         0.0532024047        0.2714901091        4.8000863011
 H         4.0219895783        1.1338229301        2.4874213558
 H         4.2868344367        2.4623149828        3.4919131385
 H         3.3723036841        2.6822903972        2.0947050856
 H         1.2602162500        2.9688286470        5.2096223383
 H         2.3472314171        1.7092993714        5.7169667270
 H         3.0382725348        3.2083853928        5.0352988597
 H        -0.1596413612       -2.1088517488        5.1907105199
 H         1.0109583866       -2.4489787537        3.8594767312
 H        -3.7696092380       -4.1022815113        3.8928269226
 H        -2.9942076182       -3.0033647214        4.8676771259
 H        -0.3740894721       -2.1895818051        0.8877584921
 H        -2.1467525217       -2.1514632621        0.5178055762
 H        -1.2976294834       -3.6682462691        0.6516836802
 H        -1.9599822718       -4.7722932614        3.0461871854
 H        -0.3489419661       -4.4408071578        2.6079315038
 H        -0.8507433931       -4.0681046891        4.2319236656
 H        -5.4529111752       -1.7121847191        3.8174325552
 H        -5.8600232673       -3.1068342194        4.7856849695
 H        -4.4006135953        1.9579649495        6.8941373971
 H        -3.4741826939        0.7419341625        6.0757908645
 H        -7.6530934500       -1.0962771558        5.5058436210
 H        -7.9274474062       -1.1831346557        7.3498265079
 H        -7.4235148096       -2.5090707723        6.5799711370
 H        -5.2174961901       -1.4681250760        8.5879620314
 H        -4.5414097852        0.1535186373        8.2394991987
 H        -6.2802640649       -0.1180506822        8.5198454755
 H        -3.3132926013        3.1443321118        5.1993329506
 H        -5.0479409255        3.2010016692        5.1039915955
 H        -5.7489357181        0.6608113252        1.0207339887
 H        -6.6039941877        2.1489159440        0.2547315754
 H        -6.9556481680        3.5450161785        2.0146343153
 H        -6.6575271515        3.6351161401        3.7906278447
 H        -6.7495677557        2.1544514734        3.0399479103
 H        -3.4201361004        4.7452856844        1.7847931587
 H        -5.0175629048        5.0396536921        1.5410719155
 H        -4.4603171414        5.1440560967        3.2090790113
 H        -6.5037563650        0.9613708975       -1.4790797768
 H        -4.9279256447        1.7659922093       -1.6222856018
 H        -4.5647883373       -1.4680577282       -5.6307564275
 H        -5.9623510053       -2.1407126971       -4.9354189937
 H        -6.0033388276       -0.4673117271       -5.8998010610
 H        -3.0823633671       -1.9106086562       -2.1504105184
 H        -3.5890432396       -2.2799128519       -3.7055502372
 H        -4.3933013399       -3.0813201241       -2.1548341655
 H        -6.8729477290       -1.8455289840       -1.4811274783
 H        -7.3069798268       -1.4675307652       -3.1484438794
 H        -6.3536856491       -2.8938328924       -2.8136245338
 Na       -2.3580775850        0.3451490591        1.1645829605
