155

 C         9.2020044784       -0.5663483274       -6.9221617006
 C         7.9634305015        0.2698922859       -6.6892305439
 C         8.0070211626        1.0934194724       -5.3676503794
 C         8.1072780137       -0.0220983110       -4.0963327452
 C         6.8553323400       -0.9201415333       -3.7800779093
 C         9.2709460816        2.0492343370       -5.1892771609
 C         6.7514964082        1.8722277387       -5.2124739770
 O         6.9874110158        0.2624189026       -7.4392761192
 O         9.0696868256       -0.0030321342       -3.3854807221
 C         6.7802239032       -2.1589450432       -4.7039866787
 C         5.4071632802       -2.8587797192       -4.8595728118
 C         4.2134687281       -2.2132592334       -5.6753096007
 C         3.8253837141       -0.7612117080       -5.0112778011
 C         3.0932968608       -0.7390306145       -3.6540469534
 O         5.2906210135       -3.9520727788       -4.3888145399
 O         4.1746225317        0.2706456653       -5.5020262470
 C         4.5902639309       -1.8780995886       -7.1763246595
 C         3.1082793758       -3.1855681665       -5.5114902829
 C         2.4321853811        0.6249724829       -3.3358882222
 C         1.4847314498        0.5522151440       -2.1487946098
 C         0.3418194253        1.7511437945       -2.2205008886
 C        -0.4267851345        1.6599454706       -0.8974254835
 C        -0.1241242102        2.5351385631        0.3286778430
 C         1.0027169533        3.1852381715       -2.3420863101
 C        -0.6506921628        1.6369768964       -3.4355838144
 O         1.5044079512       -0.1743032446       -1.1502376936
 O        -1.2137697828        0.7372879343       -0.8184080074
 C         1.1563553398        2.0557636240        1.1474308837
 C         1.2021701795        2.5603528082        2.5734500919
 C         2.1182643127        1.7943309514        3.6315732711
 C         1.6317243984        0.3695670438        4.0542577243
 C         0.1750696178        0.3255485169        4.7545820738
 O         0.7500164475        3.6169804892        2.7956102954
 O         2.2226663045       -0.6903701528        3.8421872639
 C         3.5419604378        1.6991510448        2.9851704704
 C         2.3106525398        2.6055844569        4.9372009258
 C        -0.5365193452       -0.9914648863        4.6080238650
 C        -0.9661495579       -1.3448520288        3.1568159221
 C        -1.6434908744       -2.7113634858        2.9125017070
 C        -3.1673914081       -2.4304493001        3.0817683530
 C        -4.0137315055       -3.4212788234        3.8628747410
 C        -1.4388197835       -3.2277118459        1.4559341955
 C        -1.0126718119       -3.7480636124        3.9560590788
 O        -0.8960539997       -0.5522097488        2.2582845803
 O        -3.7567875138       -1.5641385601        2.4449006011
 C        -5.1224360738       -2.6559140957        4.6057854847
 C        -4.5672917046       -1.8295709020        5.7477502876
 C        -5.6336512597       -0.9637310351        6.6090355166
 C        -5.7116627824        0.3603333418        5.5499356978
 C        -4.5467300911        1.4031915481        5.6593312989
 O        -3.3848324920       -1.6762772116        5.9291143735
 O        -6.6727938791        0.4967752960        4.8491150277
 C        -7.0878455213       -1.6463096273        6.6958555533
 C        -5.1717849413       -0.5436723449        8.0383833790
 C        -4.7806705666        2.5124243353        4.6574492275
 C        -4.3079851850        2.1100743691        3.1133130229
 C        -4.8764469030        3.0465901428        2.0518873087
 C        -4.6422896112        2.3478869483        0.6715447255
 C        -5.7719325307        1.4917963755       -0.0031305196
 C        -6.4215945955        3.2069611736        2.1517229993
 C        -4.1097175553        4.3682143583        2.1105446195
 O        -3.6000145195        1.1722896929        2.9774838627
 O        -3.6320389444        2.5467036365       -0.0234749759
 C        -5.4743404023        0.9293886442       -1.4084226279
 C        -5.2956531025       -0.5593143222       -1.4165817061
 C        -5.7497735318       -1.2900116295       -2.6257907419
 C        -4.9870121723       -0.7391642587       -3.8879995992
 C        -5.6675343802       -1.0035684068       -5.2145666203
 O        -4.9414824912       -1.1912726515       -0.4114469203
 O        -3.8422839316       -0.3087988124       -3.7990894655
 C        -5.3463222737       -2.7538856194       -2.5294313593
 C        -7.3485453708       -1.2498504289       -2.6925267563
 H         9.6385500849       -0.2387153084       -7.8173923593
 H         9.8767097586       -0.4828370581       -6.0840656374
 H         8.9715396646       -1.6865117768       -6.9826226282
 H         6.9901511597       -1.3100664747       -2.7238577892
 H         5.9925894488       -0.3182108573       -3.8680807676
 H         9.1489878550        2.7120670956       -4.2932246174
 H         9.3483760692        2.6513377672       -6.1475195867
 H        10.2512102975        1.4752729134       -5.1275979763
 H         6.7503684597        2.5863522583       -4.4150144356
 H         6.4181743203        2.3529233573       -6.1494478822
 H         5.8852788987        1.2398362200       -5.0546390800
 H         7.2365971988       -1.8990802181       -5.6742020066
 H         7.3668206027       -3.0033472354       -4.2846130773
 H         2.3753949685       -1.6271651755       -3.5716961190
 H         3.9351379315       -1.0206092892       -3.0357656316
 H         3.7305655932       -1.5452059506       -7.6090448124
 H         4.9348213756       -2.7422464726       -7.7265812066
 H         5.3764920004       -1.1263332425       -7.1922141490
 H         2.1569886001       -2.9712342439       -6.1503994592
 H         3.4203989052       -4.2391454687       -5.8572538218
 H         2.8426630870       -3.3629451000       -4.4421605440
 H         1.9712013390        0.9359762243       -4.2400624834
 H         3.0621324113        1.4798390453       -3.2364152722
 H        -0.0065844117        3.5419515577        0.1760180476
 H        -0.9971133787        2.3800619189        0.9356493471
 H         0.1190637311        3.8215507507       -2.2834024305
 H         1.6296399113        3.3568679889       -3.2563668202
 H         1.6086365423        3.3866723854       -1.5207608983
 H        -1.6887587193        1.7231677392       -3.0928537266
 H        -0.4181808034        2.3445478790       -4.2136631424
 H        -0.6511833802        0.6440194855       -3.9409179017
 H         0.9523076963        0.9667636072        1.2321334273
 H         2.1285904037        2.2432329490        0.6499955859
 H         0.1870598912        0.6980132767        5.7436104177
 H        -0.3722821516        1.1642490196        4.2434309232
 H         4.1374919227        2.4618290969        3.2994534691
 H         3.5750333951        1.5725104756        1.9422563254
 H         3.9636982165        0.7972965199        3.3024688147
 H         1.4139482459        2.8523457155        5.4830918126
 H         3.1145996593        2.1576868101        5.5032154180
 H         2.7316363178        3.5563274219        4.6519958753
 H        -1.3995995206       -1.1537792926        5.2846848649
 H         0.0783749782       -1.7714449096        4.8948619235
 H        -4.4474992941       -4.0331392494        3.0610224744
 H        -3.5475825371       -4.0446686289        4.5307958926
 H        -0.8135750473       -2.4909728533        0.9300600752
 H        -2.3910677478       -3.1581024073        0.9450473378
 H        -1.0907796623       -4.2252515291        1.4548392280
 H        -1.2077453947       -4.7602240348        3.8646817489
 H         0.0945752403       -3.6556314957        4.0872179544
 H        -1.4979909805       -3.4632503640        4.8715078282
 H        -5.6881538302       -1.9720511361        3.9737687332
 H        -5.8815773747       -3.2556579886        5.0483770508
 H        -4.6271866523        1.6560926687        6.6932154260
 H        -3.6022191713        0.9294589573        5.5734053414
 H        -7.7107133773       -1.4038973936        5.8631778363
 H        -7.6490795836       -1.3001888358        7.5547883678
 H        -6.8193180908       -2.7076811840        6.8316090021
 H        -5.0889486777       -1.3993962242        8.6478449222
 H        -4.2600818583        0.1007700662        8.1188428912
 H        -5.9714398430        0.0401195207        8.4114228887
 H        -4.2489779440        3.4343850496        4.9240256480
 H        -5.8109136732        2.7459886866        4.5368380239
 H        -5.9099729337        0.6316075886        0.5619194769
 H        -6.7729864519        2.0336976870        0.1584573089
 H        -6.7236234761        3.6523401032        1.1795567099
 H        -6.6864229731        3.8971570932        3.0154089399
 H        -7.0698983007        2.2974762514        2.2908896525
 H        -3.0912429332        4.0408798905        1.7726190045
 H        -4.4710147628        5.1612459354        1.4996929622
 H        -3.8459087497        4.7500861174        3.0956086347
 H        -6.4022345959        1.1564297757       -1.9516312862
 H        -4.6920522440        1.4414105113       -1.9578223506
 H        -5.3175857714       -0.1622537670       -5.7960510053
 H        -5.2011555795       -1.9730888585       -5.5434808029
 H        -6.6851315237       -1.2943931774       -5.1607423934
 H        -5.6673069349       -3.3409367567       -3.3747193753
 H        -5.5782830992       -2.9937664800       -1.4707960900
 H        -4.2435028865       -2.8313317748       -2.7360575086
 H        -7.5575465100       -0.6154057760       -3.5821990130
 H        -7.6808182349       -2.2869460492       -2.7059421665
 H        -7.8114812241       -0.8722555263       -1.8072884826
 Na       -2.8959459800       -0.0893053878        0.8079612139
