155

 C       -10.5975457169       -3.8694940074        2.0185778404
 C        -9.6164264903       -2.8270641514        2.4209842197
 C        -8.7500155496       -1.9871648690        1.4841650130
 C        -7.1336779174       -2.4356494450        1.4055730310
 C        -6.5076063903       -2.4810618662        2.8624807097
 C        -9.4513160811       -1.8958286926        0.1069639275
 C        -8.6290185734       -0.5498291097        2.0820610773
 O        -9.5008993462       -2.5497741920        3.5887819880
 O        -6.6053857807       -2.6037803845        0.3302321713
 C        -5.3624653781       -3.5704201428        3.0206615822
 C        -4.0018764433       -3.1115228959        2.5233268881
 C        -3.0507243148       -4.1731794020        1.9128966616
 C        -3.4006451987       -4.3978323249        0.4006507388
 C        -3.1776761239       -3.1345289285       -0.4576118202
 O        -3.6357154368       -1.9613378711        2.6511275093
 O        -3.8508901298       -5.4298204745        0.0075711340
 C        -1.5337616270       -3.6713050876        1.9849592163
 C        -3.1742653820       -5.5332217659        2.6498419773
 C        -2.6473508013       -3.5699741970       -1.8999977157
 C        -1.8520754590       -2.3779022728       -2.4086138971
 C        -1.7448166403       -1.9611458953       -3.8951826742
 C        -2.6033092193       -0.7256371169       -4.1330447803
 C        -3.8784152568       -0.8322047405       -4.9362911670
 C        -0.1859941465       -1.5556067248       -4.1845413269
 C        -2.1921011309       -3.1638592271       -4.7989879418
 O        -1.2184076058       -1.6662209329       -1.5546778639
 O        -2.2781226691        0.3230151804       -3.6826203515
 C        -4.8985698281        0.3651087547       -5.0920192447
 C        -5.7598896610        0.5171122088       -3.8314306001
 C        -6.4068824364        1.8995652918       -3.3475532687
 C        -5.3554380834        2.2276979062       -2.0568493048
 C        -5.3982640811        1.2196997075       -0.8489345240
 O        -6.1619700967       -0.4875144745       -3.2916165946
 O        -4.6934742265        3.2317195218       -1.9263031267
 C        -6.2778725914        3.0774935891       -4.2539533651
 C        -7.9132278700        1.6870698207       -2.8629617045
 C        -4.7851587596        1.8845778903        0.3220462257
 C        -3.3158588381        1.4338323408        0.5171657073
 C        -2.2834757104        2.1966213911        1.4329336981
 C        -0.8566092255        2.3598938761        0.7382347429
 C        -0.3517134498        3.7525108638        0.3662042216
 C        -2.8183435385        3.4938086167        1.9290437542
 C        -1.8865453980        1.1912115879        2.7544604719
 O        -2.8718760963        0.4609627914       -0.0715449278
 O        -0.2810046339        1.3214065814        0.5114530190
 C         1.1587936368        3.6943832519       -0.0191115683
 C         1.3451360204        2.8341540486       -1.2745969292
 C         2.7688594743        2.1143161536       -1.4357395931
 C         2.5687892611        0.5993208372       -1.1962462452
 C         3.4991695041       -0.3192060702       -0.3567519715
 O         0.5437411301        2.8034195678       -2.1973285631
 O         1.6150806813        0.0908806291       -1.7206007899
 C         3.2942852068        2.0780216666       -2.9131738482
 C         3.9400112578        2.7124091512       -0.5531149025
 C         4.8652687670       -0.5316153026       -1.0939123044
 C         5.8208124402       -1.4351161642       -0.2429726563
 C         7.3724335115       -0.9699629668       -0.0259991893
 C         7.4893159023        0.3815777520        0.7660845475
 C         8.4663689783        0.5120997729        1.8791380430
 C         8.2081338511       -2.1958319429        0.7105995757
 C         8.0236367582       -0.9317272849       -1.4907993800
 O         5.3735428511       -2.4813979007        0.2891127453
 O         6.7516343167        1.2562321955        0.2956602350
 C         8.8288486448        1.9833988255        2.0496453313
 C         9.7773399909        2.3286623203        3.2058375734
 C        10.7666022337        3.5855776572        3.1245186688
 C        11.6676984421        3.5975685943        1.8760046218
 C        12.4296223274        2.3272923752        1.3848139430
 O         9.8643938637        1.5523668701        4.1155937073
 O        11.8927432554        4.5888204698        1.2065513430
 C        10.0271777452        4.9197907983        3.2867571249
 C        11.8153151606        3.6196842871        4.3261386476
 H       -10.3487404566       -4.8801819834        1.6797769246
 H       -11.2788405323       -4.0589726747        2.8384326824
 H       -11.1988489191       -3.4403725573        1.2029118631
 H        -5.9725676088       -1.5535794452        2.9840952088
 H        -7.3354211161       -2.5043376934        3.6508822490
 H        -8.7381287947       -1.4819350439       -0.5970095485
 H       -10.3121888439       -1.3281052843        0.2560853226
 H        -9.6595128228       -2.8735901720       -0.3505459247
 H        -7.5202182483       -0.2340270807        2.2623039002
 H        -9.0629144171        0.2370055418        1.4173936557
 H        -9.2824473477       -0.3554437920        2.9620497175
 H        -5.2818647808       -3.6259404569        4.1423439412
 H        -5.6837274360       -4.4446680684        2.5034348070
 H        -4.0617645378       -2.5202402001       -0.5094735224
 H        -2.3996152923       -2.5784890218        0.0598960610
 H        -0.8996806899       -4.5868971679        2.2293454569
 H        -1.3165432735       -2.9085793219        2.7459184149
 H        -1.2714561339       -3.4156984670        1.0123976135
 H        -2.7044658233       -6.3602296411        2.0885563274
 H        -2.4718788364       -5.4473590615        3.5108894966
 H        -4.1366851783       -5.7800146549        2.9952748815
 H        -3.4258016958       -3.8618481819       -2.6422902540
 H        -1.8886994588       -4.4383222207       -1.8645721443
 H        -3.6091800099       -1.3582664121       -5.8586117677
 H        -4.5339930138       -1.5777163738       -4.3976744444
 H        -0.2235526959       -1.2956534276       -5.2908807941
 H         0.5357827130       -2.4164640674       -3.9638894331
 H         0.0948526836       -0.7653254563       -3.5443011580
 H        -1.7892962675       -4.0742540569       -4.3935647619
 H        -3.3038601672       -3.2216995120       -4.9459022426
 H        -1.7863125410       -3.0021889367       -5.8281743706
 H        -4.3326834084        1.2913708980       -5.2174564494
 H        -5.4865095125        0.3650787423       -5.9365454544
 H        -6.3778552024        0.8308271054       -0.6311636905
 H        -4.7192266765        0.3755515731       -1.2616392959
 H        -5.2344826679        3.2290140588       -4.5804865241
 H        -6.6079113312        4.0293119297       -3.8513953425
 H        -6.8721144940        2.8414012792       -5.1648016652
 H        -8.2952231231        2.6315966940       -2.4440669537
 H        -8.4693896003        1.4698479385       -3.8109178047
 H        -7.9687478354        0.8789210199       -2.1254296266
 H        -5.1982654441        1.5979891571        1.3280825568
 H        -4.7098410640        2.9712834198        0.1621311194
 H        -0.8698074762        4.1892596172       -0.4994078955
 H        -0.4138032024        4.5108521883        1.2140377349
 H        -3.0825869430        4.1877365630        1.0863894979
 H        -1.9826124847        3.9811371879        2.4706507537
 H        -3.6448045677        3.3677009533        2.5833318767
 H        -1.4510161292        1.7702659351        3.5825910544
 H        -2.8018602311        0.7380642345        3.2764116864
 H        -1.3175324536        0.3628190362        2.2791511246
 H         1.5803750736        4.7005037113       -0.3067247672
 H         1.6813719359        3.2992049370        0.8200571708
 H         3.7533605646        0.1779727182        0.6034798075
 H         3.0831324429       -1.2394130703       -0.1475350420
 H         2.5697247183        1.5260537038       -3.5799827431
 H         4.2712458158        1.5055157651       -2.9674970175
 H         3.4511399816        3.0866945304       -3.3639371452
 H         4.8630186710        2.2126669967       -0.4964671989
 H         3.9792895392        3.7976654227       -0.8638549473
 H         3.6591393748        2.8017456682        0.5406323126
 H         5.3112444122        0.4411991543       -1.2716441630
 H         4.7736620710       -0.9444113994       -2.1067039081
 H         7.9729212236        0.1101627792        2.8136535018
 H         9.2573667714       -0.1677553763        1.6320274931
 H         8.0716646969       -2.1665509823        1.7921620594
 H         9.2350033696       -2.1411695692        0.3233679676
 H         7.7501339473       -3.0919056235        0.2980561555
 H         8.9818492937       -0.3472334274       -1.4490952624
 H         8.2371362113       -2.0020990989       -1.7857488068
 H         7.3479022903       -0.5123698196       -2.1629952731
 H         9.2005394814        2.4499118910        1.1207122494
 H         7.9971635521        2.6536257657        2.3540916962
 H        12.7836880250        2.5914809298        0.3807234933
 H        13.2755842937        2.1699818215        2.0840716757
 H        11.7409615756        1.4593254365        1.3834403154
 H         9.0576707407        5.0808984355        2.7601292896
 H        10.6105815978        5.7513124889        2.8015770874
 H         9.7699081501        5.2196417699        4.3027485746
 H        12.7047762812        4.2327165216        4.1695103487
 H        11.3142462226        4.0442664218        5.2482157386
 H        12.2248784391        2.6149542776        4.4711942861
 Na       -0.9525540253        0.6649861328       -1.6777607935
