155

 C        10.5765571607        1.0996645397       -6.7452505610
 C         9.0860861358        1.4676046021       -6.4842199514
 C         8.6407728553        1.7560457735       -4.9116249560
 C         8.8003236259        0.3804667752       -4.1715378895
 C         7.5878966898       -0.5351954090       -3.8775117777
 C         9.6093077102        2.9044218854       -4.4559598499
 C         7.1815445114        2.2362404078       -4.9064127995
 O         8.3048333883        1.5043631844       -7.4153935345
 O         9.9642432437        0.1083804609       -3.9078108472
 C         6.8113624097       -1.0059899939       -5.1302194676
 C         5.6995338329       -2.1112414523       -4.7805240350
 C         4.3674103179       -2.3028502863       -5.5909917659
 C         3.4818574873       -1.1121298985       -5.0942583789
 C         2.6459595710       -1.2816315120       -3.7693446964
 O         5.8688234303       -2.8597041081       -3.8363195200
 O         3.5163950494       -0.0467804915       -5.7236896193
 C         4.5708450044       -2.0996604693       -7.1090780044
 C         3.5809902622       -3.5571252497       -5.3131615299
 C         2.4399474899        0.0964369428       -3.1142024525
 C         1.4786639907        0.0512604397       -1.9410851755
 C         0.1411121911        0.9545557756       -1.9350711398
 C        -0.7306955701        0.8184440161       -0.6588929750
 C        -0.4989103342        1.6711000247        0.5939776087
 C         0.5943237181        2.4683486585       -2.1550333261
 C        -0.8382307589        0.5322171880       -3.1858442337
 O         1.8402733844       -0.5990802681       -1.0307864077
 O        -1.5704074790       -0.0571893426       -0.5672271940
 C         0.6972007181        1.2187140648        1.4080577709
 C         1.0688149553        2.1302886485        2.5655468214
 C         2.1632768789        1.6862807276        3.5453373533
 C         1.7146776678        0.3180987209        4.1217173361
 C         0.3163389106        0.3957514581        4.9585173492
 O         0.4218874172        3.2081568249        2.5619859864
 O         2.3105802326       -0.6992713169        3.9316096880
 C         3.5079840818        1.6777021243        2.8791635429
 C         2.2947026955        2.8530224037        4.6614688990
 C        -0.3611941492       -1.0795028624        4.9818988782
 C        -1.2643662048       -1.2255259373        3.7084844570
 C        -1.5366489973       -2.5817734138        3.1166397042
 C        -3.1219806952       -2.6840118594        3.1342053715
 C        -3.9109556387       -3.5752830537        3.9729202125
 C        -1.0669415240       -2.6059816128        1.6014241513
 C        -0.9758851421       -3.8332461977        3.8838092863
 O        -1.6402259137       -0.2367282193        3.1101253612
 O        -3.8109815774       -2.0539643148        2.3301778511
 C        -5.2111954816       -2.9312159755        4.5015734498
 C        -4.7817779929       -1.7469473177        5.5354424336
 C        -5.8671261503       -0.8867506493        6.2960557629
 C        -6.0050875063        0.2839950373        5.3506720329
 C        -4.9198942608        1.4004616145        5.3794893495
 O        -3.6278644327       -1.2808765905        5.5939968795
 O        -6.9274792570        0.3818148991        4.5592231662
 C        -7.2624806754       -1.6828819396        6.5293812528
 C        -5.2627172789       -0.6185089785        7.6897225195
 C        -5.3097861394        2.5248739038        4.3836020070
 C        -4.9043875671        2.1213665509        2.9298589496
 C        -5.3169544522        3.0007965119        1.6886973264
 C        -4.6681584253        2.5254916036        0.3869916264
 C        -5.4125095573        1.9119217134       -0.7689108700
 C        -6.9160817834        3.0368136238        1.7242964170
 C        -4.7179525644        4.4393946276        1.9062131182
 O        -4.3645490535        1.0282103297        2.8047940043
 O        -3.4423106578        2.6918509802        0.2525142092
 C        -4.7099309404        1.1035676071       -1.8509804910
 C        -4.8612825209       -0.3987811945       -1.6267928706
 C        -5.8505558817       -1.1515233203       -2.6187646251
 C        -5.1031351604       -1.4327867363       -4.0361604905
 C        -5.6831681430       -2.5296555754       -5.0057540601
 O        -4.4384231042       -1.0030807698       -0.6755522815
 O        -4.1938224938       -0.7364559407       -4.3488268573
 C        -6.3978506781       -2.4314004364       -1.9783457834
 C        -7.1452795734       -0.2923606219       -2.9815601258
 H        10.6124649520        0.0731547103       -7.3154275253
 H        10.9778332212        1.7961158906       -7.4880621875
 H        11.1423422051        1.1262400387       -5.8869401739
 H         7.8883254107       -1.2981108418       -3.2580525660
 H         6.8099121838        0.0595733686       -3.3595191378
 H         9.3998118350        3.1649426629       -3.4205641935
 H         9.4023022228        3.8365761559       -5.0281222048
 H        10.6405468350        2.5783210226       -4.7046645388
 H         6.8138992767        2.2162621928       -3.8953286383
 H         7.0319538868        3.2262817767       -5.3133983649
 H         6.5289864414        1.6318013585       -5.5302257981
 H         6.1667364311       -0.2176514991       -5.5395154859
 H         7.4930069245       -1.2950799966       -5.9361272303
 H         1.7006458391       -1.6852461600       -4.0362691764
 H         3.1930835876       -2.0445192151       -3.2102848614
 H         3.7617027931       -2.7058602407       -7.6271244820
 H         5.5233340211       -2.4622595428       -7.4249211232
 H         4.4648571130       -1.0620655214       -7.3389619391
 H         2.6324648839       -3.6517148005       -5.7675442641
 H         4.1089665514       -4.3911358865       -5.7125183884
 H         3.5121936241       -3.6977650125       -4.2076097351
 H         2.1173139946        0.7775649509       -3.8925857102
 H         3.4215367608        0.3849212905       -2.6199690044
 H        -0.5698062226        2.8242526598        0.4325854446
 H        -1.2227518298        1.5548796005        1.3742924010
 H        -0.1896336528        3.1486241266       -2.2906983923
 H         1.3508022576        2.5510298105       -2.8711377060
 H         1.1080716372        2.8067074667       -1.2091555020
 H        -1.1028450587        1.4831342128       -3.7246906614
 H        -0.4164978100       -0.2322993935       -3.8291749653
 H        -1.7305792015        0.0640237154       -2.7079926626
 H         0.4593590108        0.2406557726        1.8069918994
 H         1.5487032910        1.0442707639        0.7835038689
 H         0.7035462546        0.7331414034        5.9419458060
 H        -0.3081597349        1.1441233665        4.4686815354
 H         3.4292861480        2.5340616159        2.1250041525
 H         3.8117891144        0.8094429497        2.3451868459
 H         4.2843355773        1.9504297009        3.5936786458
 H         1.2854407797        2.9814836865        5.0690096500
 H         2.9410200321        2.6501520739        5.5073233826
 H         2.6570763163        3.7445410849        4.1677674810
 H        -1.1704250929       -1.2375097479        5.7494002756
 H         0.4115286068       -1.8774542385        5.0489850621
 H        -4.1674620796       -4.4599865924        3.3455664573
 H        -3.3160508946       -3.9642685477        4.9141204444
 H        -0.5413498938       -1.6651820432        1.5424008642
 H        -1.9422094539       -2.5133415193        0.9377866484
 H        -0.4211032840       -3.5198864620        1.4274991847
 H        -1.5793818502       -4.8109385774        3.7577576907
 H         0.0027676734       -3.9989567126        3.5774264677
 H        -0.8790158951       -3.6955628243        4.9590502400
 H        -5.6839947438       -2.3967271419        3.6188680255
 H        -5.9327433969       -3.6744173566        4.8670414153
 H        -4.9988423709        1.8618649909        6.4112101390
 H        -4.0004458073        0.8392532292        5.2302500337
 H        -7.7400419046       -1.3323810082        5.5808100765
 H        -7.7699731765       -1.2543498808        7.3552482453
 H        -7.0989238221       -2.7293395492        6.5350668619
 H        -4.6364297129       -1.4824797587        8.0682479877
 H        -4.5691850726        0.2061710105        7.6961018560
 H        -6.0031364340       -0.4046601087        8.4559151896
 H        -4.6156711293        3.3228329605        4.6854990345
 H        -6.3617863345        2.8467077973        4.5492155643
 H        -6.0890204543        1.1715959861       -0.3049897380
 H        -5.9869842791        2.6550713603       -1.4176914734
 H        -7.2215547590        3.6422316326        0.9070350811
 H        -7.1387023427        3.4734213314        2.6289060663
 H        -7.2592184804        2.0401949753        1.7359613202
 H        -3.7417922933        4.5372213954        2.3755937173
 H        -4.7159618104        4.9851509474        0.9691421589
 H        -5.4277990280        4.9520427397        2.5915389565
 H        -5.0658718815        1.3786255903       -2.8179834436
 H        -3.6246375326        1.3562346528       -1.8603258296
 H        -5.3069717098       -3.5381616956       -4.8051047445
 H        -6.7618817013       -2.4238652906       -5.1161064084
 H        -5.0273656858       -2.3522819123       -5.8741616802
 H        -6.7348139269       -3.0997859376       -2.7487615108
 H        -7.1949213465       -2.3150206113       -1.2815750494
 H        -5.7457484853       -2.9593112830       -1.3347945856
 H        -6.8288913893        0.7152639774       -3.1721915395
 H        -7.6994021265       -0.7653256669       -3.7979884521
 H        -7.7496207675       -0.1383712684       -2.0789831334
 Na       -3.2892133754       -0.0718048453        1.0851484336
