155

 C        10.9562591962        2.9055254034       -7.0422378036
 C         9.7436345168        3.0341009822       -6.1079918121
 C         9.9637982979        2.7529190248       -4.5563105740
 C        10.1000136656        1.1669196163       -4.4152003050
 C         8.9135252280        0.4026892790       -3.7710620812
 C        11.3217424024        3.2276725647       -4.0820324271
 C         8.9219213657        3.4014906809       -3.5754119201
 O         8.5529655485        3.0558755338       -6.3889394866
 O        11.0553773976        0.5657537509       -4.8958421754
 C         8.1607012892       -0.5759855512       -4.7143581087
 C         6.7179248305       -0.7959289648       -4.1629334066
 C         5.6578423907       -1.7093411461       -4.9247765351
 C         4.2542867141       -1.0007164710       -5.1122676946
 C         3.5915584145       -0.4073641349       -3.7144589339
 O         6.4878856635       -0.3232731658       -3.0617454235
 O         3.6916513655       -0.9357072265       -6.1617348352
 C         6.0714450613       -2.1310892641       -6.3277540427
 C         5.3671425072       -2.9172299806       -4.0772659787
 C         2.1002055616       -0.2167342188       -3.8775684479
 C         1.3477476061        0.0534828223       -2.5970479779
 C        -0.1614596150        0.0404915058       -2.5620464703
 C        -0.8058779386        0.3629509217       -1.1442885604
 C        -0.2046215088        1.4406748395       -0.1593545236
 C        -0.8074459038        1.2000029480       -3.4685161478
 C        -0.7344278808       -1.2930023110       -3.0109385408
 O         1.9286573930        0.1449768775       -1.5621592677
 O        -1.9370789397       -0.1405409795       -0.9528113406
 C         0.4794267026        0.7995470462        0.9897300414
 C         0.9355233404        1.7674317119        2.1104663570
 C         2.0047392424        1.2645224916        3.1007634829
 C         1.3387301501        0.0313398391        3.7151293039
 C         0.3549037647        0.1436027603        4.9729993420
 O         0.5062870571        2.8693687672        2.2182484008
 O         1.5083866773       -1.1085021534        3.2309939213
 C         3.2413567572        0.8647922540        2.3468214546
 C         2.2122136737        2.3359397679        4.2609878156
 C        -0.5966114560       -1.0455926228        5.0217961407
 C        -1.5574210245       -1.1478947174        3.8898046264
 C        -2.0708950313       -2.6224467959        3.3469217925
 C        -3.6503755248       -2.5225354935        3.4079108572
 C        -4.5338094175       -3.5425215019        4.1417595068
 C        -1.5006168666       -2.7785474617        1.9548425408
 C        -1.5720781440       -3.7527568452        4.1642317742
 O        -2.0254432390       -0.1910517273        3.3333674851
 O        -4.2002045050       -1.6883064280        2.6378108597
 C        -5.8395064717       -2.9047121535        4.4723598964
 C        -5.7089487912       -1.8744213337        5.6143218377
 C        -6.8980796093       -0.9386772541        6.1169391165
 C        -6.7212395935        0.2426381800        5.0351616286
 C        -5.6391703195        1.2841823343        5.2829537722
 O        -4.6397109412       -1.8133151130        6.1762068101
 O        -7.1881158517        0.1655349645        3.9151583814
 C        -8.3596709560       -1.5198079340        6.1479269988
 C        -6.5613899981       -0.4131104592        7.5229244382
 C        -5.6367599423        2.4715919401        4.1793474118
 C        -4.9453386435        1.9509620849        2.8672582307
 C        -5.7433893679        2.3940022639        1.5168891401
 C        -4.8146217461        2.2325059197        0.2429384191
 C        -5.4133260239        1.8635510506       -1.1464086017
 C        -6.9825418876        1.5380722329        1.4312512199
 C        -5.8754732215        3.9217806546        1.6729496764
 O        -3.9373582529        1.3047639389        2.7477195370
 O        -3.6271311652        2.2297057499        0.3657130852
 C        -4.7200470302        0.7263459056       -1.9291902472
 C        -5.2554276441       -0.7060789941       -1.3429637482
 C        -6.1627444340       -1.5702843323       -2.1760369186
 C        -5.2218268611       -1.8082043976       -3.5129772916
 C        -5.9451800012       -2.4932007903       -4.7032656263
 O        -4.7572359336       -1.1283489927       -0.3164432014
 O        -4.0235193514       -1.5170701722       -3.5904758540
 C        -6.5113633958       -2.9740528963       -1.5716060922
 C        -7.4254639406       -0.8423797774       -2.5041322543
 H        11.8183990147        3.0760297815       -6.5571194679
 H        11.0131464962        1.8577404481       -7.4096424561
 H        10.7741294801        3.5361165368       -7.9628847314
 H         9.4191045094       -0.0983373684       -2.9885121584
 H         8.1566389248        1.1390836406       -3.3393731908
 H        11.6692732744        2.8822468103       -3.1093802073
 H        11.5353483186        4.3148684752       -4.2167318546
 H        12.0861724236        2.7023310523       -4.6694249615
 H         8.8426938682        2.7814544542       -2.7002130902
 H         9.3407934266        4.3275221696       -3.2184238821
 H         7.9344419931        3.4917985356       -4.0159574324
 H         8.1532859103       -0.2764915677       -5.7850176097
 H         8.6758420139       -1.4813236183       -4.6507257419
 H         3.9639315408       -0.9191083477       -2.7689151332
 H         4.1542216542        0.5366783643       -3.6740171201
 H         5.3389006079       -2.8473509241       -6.8251708136
 H         7.0491684234       -2.6088510190       -6.2936525362
 H         6.2322156918       -1.2839013570       -7.0079910033
 H         4.4857867441       -3.4098970777       -4.5245576803
 H         6.2165295723       -3.4976878040       -4.0008036475
 H         5.1680192559       -2.5996964580       -3.1231447511
 H         1.8027731490       -1.1489424161       -4.4193828498
 H         2.0030872812        0.6079398711       -4.5767032407
 H         0.4207506080        2.2251945441       -0.6980364442
 H        -1.0505778062        2.0385120569        0.1774496982
 H        -1.6294026659        0.7010027273       -4.1359569266
 H        -0.0972129256        1.7754101059       -4.1323609836
 H        -1.3064595462        1.8653714613       -2.7750663842
 H        -0.5598796705       -1.9045832512       -2.0791048012
 H        -1.7595556195       -1.3072344830       -3.3526373008
 H        -0.1681539854       -1.7858366900       -3.8001756681
 H        -0.2725441245        0.1041625616        1.3762021783
 H         1.3293681251        0.1799318075        0.5655838861
 H         0.9313601210        0.0969063880        5.9133625834
 H        -0.2300413009        1.1015397110        5.0120961697
 H         3.6162995151        1.8219816211        1.9800469249
 H         3.1164007517        0.1392479277        1.4532829633
 H         3.9699431919        0.2586284099        2.9667371325
 H         1.2081830150        2.6672641743        4.5441406996
 H         2.7356662937        1.9296041235        5.1095652163
 H         2.5845564320        3.3137417721        3.9945772166
 H        -1.1904728911       -1.0489174736        5.9239407156
 H        -0.0659056028       -1.9883789257        5.0731888888
 H        -4.5158770139       -4.4818589031        3.5142234674
 H        -4.0984738218       -3.7752030034        5.1854348748
 H        -1.1888974203       -1.7796570585        1.5759435807
 H        -2.2128747588       -3.2197519744        1.1764893168
 H        -0.7019432218       -3.4887300712        1.7626288582
 H        -1.8833628197       -4.7483825341        3.7459591883
 H        -0.4962109251       -3.7287895967        4.2483811554
 H        -1.9976822265       -3.5843102204        5.1676047689
 H        -6.2073851264       -2.3159910713        3.6594105853
 H        -6.6233897897       -3.6257252342        4.6793964926
 H        -5.6653373058        1.7797439557        6.2637921319
 H        -4.6804567373        0.7692855710        5.1950350877
 H        -8.6320814492       -1.6312471822        5.0878546331
 H        -9.0787460516       -0.7919037097        6.5280967350
 H        -8.6093746485       -2.3724831313        6.7601398446
 H        -6.8867972448       -1.1658197598        8.2801635621
 H        -5.5971618883       -0.0520995363        7.7567030709
 H        -7.2242291453        0.4590993753        7.7135767411
 H        -5.1234588017        3.3817092790        4.5249309517
 H        -6.6501402107        2.7701029143        4.1244508999
 H        -6.5025926203        1.5376438811       -1.0957493260
 H        -5.5369828547        2.8301258556       -1.7287298427
 H        -7.6506270362        1.6800042386        0.5736042268
 H        -7.6888158293        1.5799622359        2.2581065420
 H        -6.6931334815        0.4645043671        1.3042890475
 H        -4.8948400676        4.3609513378        1.4983640834
 H        -6.5457593417        4.2798816036        0.8776440483
 H        -6.3230318151        4.2968425331        2.6375585243
 H        -5.0237908651        0.7017921612       -2.9677582709
 H        -3.6289639850        0.7455598083       -1.8876792300
 H        -6.8448037791       -2.0113750955       -5.1512397533
 H        -5.2860775934       -2.6081191391       -5.5025017056
 H        -6.4240360283       -3.4565045283       -4.4094863933
 H        -6.1420264738       -3.7286961576       -2.3204552714
 H        -7.5655426703       -3.0848314416       -1.3857447803
 H        -5.8663380787       -3.1592659210       -0.7899002452
 H        -7.5630607671       -0.5232385334       -3.5330279379
 H        -8.3633333656       -1.3237194508       -2.2951559165
 H        -7.5603653168        0.0609056910       -1.8845897673
 Na       -3.2013111598        0.0134397021        1.0004549848
