155

 C        10.3441711364        3.2118733599       -7.1810465862
 C         9.6454638905        3.2023635047       -5.8432905144
 C        10.6621255759        2.9174843070       -4.5304887859
 C        10.3343655886        1.4123057509       -4.2991195903
 C         9.0627314987        0.9915193824       -3.5366168290
 C        12.1684436143        3.1497618421       -4.6991915307
 C        10.0723844712        3.7738589642       -3.3477931577
 O         8.5090845143        3.5832742751       -5.7281518646
 O        10.9420417267        0.5481615936       -4.9279768185
 C         8.1663374951        0.1841320548       -4.4973493785
 C         6.8124823228       -0.2756915871       -3.8878693600
 C         6.0300576457       -1.4816323121       -4.6461847604
 C         4.5029547757       -0.9046309840       -4.9499147233
 C         3.5978567560       -0.4829016899       -3.6583847075
 O         6.2951638842        0.1133406472       -2.9012472747
 O         4.0438894882       -0.4598225201       -5.9806401630
 C         6.6200839061       -1.9208769656       -6.0242854385
 C         5.9502651130       -2.7242171803       -3.6906165948
 C         2.1106891960       -0.7340995272       -3.9955299512
 C         1.4231701408       -0.3062297445       -2.6671784092
 C        -0.1731097475       -0.0991416930       -2.7329073210
 C        -0.5455166352        0.3312134987       -1.2216655227
 C         0.1567732900        1.4840613883       -0.4864205393
 C        -0.6929671039        1.1287255073       -3.5603835796
 C        -0.7954269522       -1.4559308265       -3.1719892063
 O         2.0906091351       -0.1161328693       -1.6561157179
 O        -1.4702263037       -0.2665164061       -0.7313322980
 C         0.7372451924        0.9094833294        0.8503211561
 C         1.0933774250        1.9127055667        1.8810192626
 C         1.9092180938        1.1978571253        3.1035544221
 C         1.1425654705       -0.1568981523        3.5866526403
 C         0.2141344315       -0.1114854744        4.8250758121
 O         0.6835648308        3.0264552979        1.9304600996
 O         1.2401415362       -1.1398371201        2.9553383711
 C         3.2950922223        0.9530280450        2.5257022459
 C         2.1890448925        2.1791551889        4.2840207511
 C        -0.5926159445       -1.3875358014        4.9926937996
 C        -1.4316035879       -1.6115291572        3.6365489743
 C        -2.1756263669       -2.9978786795        3.5652667523
 C        -3.7649258802       -2.6280511827        3.3217887548
 C        -4.6721726192       -3.4267875343        4.1822179495
 C        -1.7272610483       -3.8692396781        2.3270801893
 C        -1.9705790084       -3.8647166995        4.8646482370
 O        -1.5003256405       -0.7202774195        2.7411233378
 O        -4.0043559490       -1.7634897568        2.5203048645
 C        -5.9201408530       -2.6854359777        4.7055566301
 C        -5.6588846184       -1.8454090687        5.9072973731
 C        -6.8010401602       -0.8631131909        6.1513898900
 C        -6.8337306580        0.3350726881        4.9635242152
 C        -5.9626640978        1.5584878101        5.0789048062
 O        -4.7499724079       -2.0943111299        6.7133347517
 O        -7.4356181679        0.1369405372        3.9681956070
 C        -8.2217600211       -1.4667362130        6.0102890848
 C        -6.6046700346       -0.1138307070        7.5023685652
 C        -6.0626735420        2.5607634124        3.9303865904
 C        -5.5263170364        1.8463234824        2.6912093945
 C        -6.1408522661        2.3278783677        1.4423546971
 C        -5.1015749123        2.0115989264        0.2327562886
 C        -5.4722335569        2.0096551679       -1.2646747959
 C        -7.5387518185        1.7161107001        1.1926517736
 C        -6.4704026741        3.8938564704        1.2592649009
 O        -4.5641735718        1.1259351306        2.7839110473
 O        -3.8869788992        1.9997585071        0.3544175285
 C        -4.9705443383        0.6843494092       -2.0048711783
 C        -5.3336157292       -0.6146971814       -1.4200317079
 C        -6.2069514008       -1.5842729786       -2.2799566930
 C        -5.3985336278       -2.0555108790       -3.6913546029
 C        -6.1691157005       -2.8133659604       -4.8368187397
 O        -4.9704564080       -0.9878283156       -0.3097485963
 O        -4.1559374862       -1.9372901404       -3.7099780784
 C        -6.3574940374       -2.8895864208       -1.5871295892
 C        -7.4358442364       -0.7748274085       -2.5456996537
 H        10.3874541692        4.2363185654       -7.4980730289
 H        11.3971686054        2.8423848179       -7.1113728716
 H         9.7421502508        2.5011724568       -7.8474073645
 H         9.4578862668        0.4851590526       -2.6360333700
 H         8.5228991901        1.7875270293       -3.1134868987
 H        12.7150305607        3.0457803333       -3.7830494824
 H        12.3873496062        4.1896424035       -4.9121040330
 H        12.6380332885        2.6258443148       -5.5410226137
 H        10.1868387567        3.3895980647       -2.3519724827
 H        10.4685531453        4.7776043513       -3.3376794438
 H         9.0199770430        3.9304110446       -3.5542239328
 H         7.8171897605        0.9153005391       -5.2655827032
 H         8.7029292226       -0.7152911121       -4.9254410467
 H         3.7999368545       -1.0927450887       -2.7681735965
 H         3.6757523234        0.5420111715       -3.4710440812
 H         5.8434591918       -2.5206466870       -6.5922343835
 H         7.4393420385       -2.6622778087       -6.0063569374
 H         6.8619819875       -1.0948440758       -6.6903576580
 H         5.0727279367       -3.3492008813       -3.7407391884
 H         6.7715805073       -3.3263474174       -3.9807593019
 H         5.9988743662       -2.3135013957       -2.7165547529
 H         1.9710910796       -1.8007370241       -4.1303056414
 H         1.5721867492       -0.1688077580       -4.7025889356
 H         0.8586240032        2.0479371653       -1.1160252576
 H        -0.6784786274        2.2248339661       -0.1585968845
 H        -0.2974786341        1.0318484591       -4.5847670954
 H        -0.3038957697        2.0274092243       -3.1002124226
 H        -1.8531133819        1.0560565585       -3.5252614551
 H        -0.4466159346       -2.2347903311       -2.5014263684
 H        -1.8892138735       -1.4402243855       -2.9841828890
 H        -0.5820377509       -1.7540451533       -4.2533135084
 H        -0.0226579721        0.3407310326        1.4087447079
 H         1.5809596501        0.2534356167        0.6778992672
 H         0.8418992871       -0.0180629640        5.7268060534
 H        -0.4549141821        0.8049222643        4.7022616936
 H         3.7750282886        1.8290530846        1.9790342099
 H         3.0958114882        0.1813923599        1.7501025434
 H         4.0195648010        0.5194613061        3.2737067431
 H         1.2225422756        2.7004388480        4.5146780263
 H         2.6130494918        1.7871990791        5.2202848232
 H         2.9256826555        2.9338676469        3.9651010590
 H        -1.3175215528       -1.4468621435        5.8795951271
 H         0.0635227985       -2.2391130769        5.1690879902
 H        -4.9272415413       -4.2696905794        3.5486897098
 H        -4.1297530397       -3.9245226040        5.0201646165
 H        -2.2865945871       -3.7294161355        1.4242168809
 H        -1.8148770573       -4.9699160873        2.4508997859
 H        -0.6444333864       -3.6773240871        2.0314901047
 H        -2.5695741259       -4.8353433300        4.8178353317
 H        -0.9512855099       -4.0848693755        5.0511417253
 H        -2.3835533492       -3.2643521449        5.6953149308
 H        -6.4879812201       -2.1356912578        3.9747821077
 H        -6.6449905186       -3.3946950863        5.0800329168
 H        -6.1490450819        2.0928883737        6.0399284755
 H        -4.8558600390        1.3140749411        4.9566121690
 H        -8.6917754686       -1.3315701427        4.9907653156
 H        -8.8607859896       -1.1186215076        6.7972987498
 H        -8.2400738740       -2.5551320215        6.1356550965
 H        -6.8974184773       -0.7532834034        8.3938423905
 H        -5.5487734499        0.1637706691        7.7157206388
 H        -7.2786674169        0.7450527085        7.5204895246
 H        -5.4950108951        3.4101642559        4.1773105739
 H        -7.1193690116        2.8000625963        3.7872048892
 H        -6.4659796767        2.1404802825       -1.4925117722
 H        -4.9484199745        2.8966254560       -1.7861959089
 H        -7.7926303317        1.8335026399        0.0951507361
 H        -8.3847952104        2.1764772492        1.6711529727
 H        -7.6382773777        0.6018022195        1.4806238189
 H        -5.6366659339        4.6470161543        1.2911722548
 H        -6.9482837018        3.8932905175        0.2848889159
 H        -7.1961651099        4.1778176636        2.0244226431
 H        -5.1469693367        0.7892544009       -3.0731813741
 H        -3.8813543483        0.6084032555       -2.1297877966
 H        -6.2798260243       -2.3484141131       -5.7835027438
 H        -5.5894803901       -3.7037845436       -5.1000271313
 H        -7.1799559167       -2.9611668495       -4.4935119780
 H        -7.2486935443       -2.9107379110       -0.9163718961
 H        -5.5584012620       -3.1058784446       -0.8547226470
 H        -6.2815810528       -3.6681046319       -2.3469901384
 H        -7.1568644587        0.0755502283       -3.2085793541
 H        -8.2167936871       -1.3420205676       -3.0858566877
 H        -7.8876320779       -0.3186191302       -1.6955547436
 Na       -3.1871569700       -0.0076741423        1.0492226842
