155

 C        10.1317242584        3.2396221306       -7.1930719658
 C         9.7920154583        3.4273468434       -5.7138261639
 C        10.7745905760        3.0181771437       -4.5110833884
 C        10.3034646338        1.5697645868       -4.3231010807
 C         8.9482152136        1.2402512296       -3.7198171132
 C        12.2482663905        3.1287401115       -4.9720456197
 C        10.5410785510        3.9042063363       -3.2962500067
 O         8.6421104457        3.6716940183       -5.3967201145
 O        11.0215498300        0.6766235196       -4.6629349157
 C         8.1144632483        0.3888178577       -4.6474931880
 C         6.9015448393       -0.1896207689       -3.9191684828
 C         6.0992002813       -1.3313230987       -4.6477386487
 C         4.6012445154       -0.8526340301       -4.8641080571
 C         3.7362792853       -0.6907011934       -3.7118491172
 O         6.6091860852        0.1182775271       -2.7475084656
 O         4.2434036213       -0.6463031670       -6.0046567532
 C         6.5439135920       -1.7925672538       -6.0571028677
 C         6.0900182280       -2.4618858778       -3.5959704682
 C         2.2350585932       -0.5275208656       -3.9580953005
 C         1.4206593637       -0.3546443346       -2.6111093772
 C        -0.1868797723       -0.1411450036       -2.6587060702
 C        -0.7345217383        0.2236709949       -1.2205547936
 C        -0.0569073371        1.3121106974       -0.3089291922
 C        -0.3476776708        1.1244268012       -3.7500314972
 C        -0.9478603893       -1.3798376521       -3.1992379723
 O         2.0416589191       -0.2050683253       -1.5602075848
 O        -1.6401132767       -0.4924434614       -0.7749433748
 C         0.5351461953        0.6757405446        0.9466303967
 C         1.1469021243        1.7658292837        1.9969739819
 C         1.9256811422        1.2015027561        3.1613743034
 C         1.2598848829       -0.0589576667        3.5227563602
 C         0.1995625369       -0.0012196199        4.6207888614
 O         0.7989466854        2.9376669422        1.8772127734
 O         1.5260805472       -1.1011040557        2.9313030712
 C         3.3909280601        0.8908732137        2.6577732504
 C         1.9621735368        2.2842716351        4.2890067889
 C        -0.5805936259       -1.2679249489        4.9205176523
 C        -1.4193068582       -1.7155700856        3.5317300949
 C        -2.0540972174       -3.1810225780        3.5902584349
 C        -3.5997924153       -2.7642782926        3.4648084054
 C        -4.8381568426       -3.5233835202        4.2366058124
 C        -1.7698053865       -3.9985467612        2.3491232955
 C        -1.7388558682       -3.9728354782        4.9712791834
 O        -1.5782668511       -0.9382262940        2.6776011397
 O        -4.0499783524       -1.9198910870        2.7148841103
 C        -5.9918059406       -2.5880552196        4.4561828547
 C        -5.8385144251       -1.6973940612        5.7241484763
 C        -6.9415277713       -0.7140478275        6.2592639556
 C        -6.8365940997        0.3511114905        5.0897470270
 C        -6.1536176861        1.6964055074        5.2357779045
 O        -4.8953714082       -1.8868547395        6.4309024810
 O        -7.3484183686        0.0653207076        3.9976241187
 C        -8.3238011135       -1.3170857349        6.3639194422
 C        -6.5226791727       -0.1268021593        7.5914981711
 C        -6.2169201464        2.5156128429        3.8977368423
 C        -5.6998489353        1.8631950368        2.6523022353
 C        -6.2442750777        2.3231018442        1.2873024993
 C        -5.1720599811        2.0154624813        0.1347622998
 C        -5.5815956311        1.8267235096       -1.4599560068
 C        -7.4905434507        1.5011426381        0.9342653005
 C        -6.3578283418        3.8845675786        1.1146966337
 O        -4.9078081700        0.9263083648        2.5842550883
 O        -3.9892258538        2.1420816585        0.4113522783
 C        -4.7910062199        0.7208066881       -2.1099114118
 C        -5.3110461448       -0.5774147438       -1.4597306803
 C        -6.1946762947       -1.5697369580       -2.2563629654
 C        -5.3341792500       -2.0552040157       -3.6114460190
 C        -6.2288431971       -2.7985168904       -4.5682540601
 O        -4.9821547908       -0.8483484689       -0.3170073256
 O        -4.2186799455       -1.7579938841       -3.7842739511
 C        -6.4795486316       -2.8886184631       -1.4846949336
 C        -7.4976404878       -0.9860744484       -2.7735442167
 H        10.3505577374        4.3229448053       -7.4875171394
 H        10.9731220139        2.6159640128       -7.3552772668
 H         9.2870206879        2.8778658748       -7.6618206778
 H         9.1075087704        0.6831940508       -2.7874306179
 H         8.4214129436        2.1461245437       -3.3381782051
 H        12.9314477640        3.2835269711       -4.1380667611
 H        12.5011860743        3.8682064752       -5.7124804033
 H        12.5071958990        2.2132212321       -5.4279464177
 H        10.7733650651        3.3307408396       -2.3749099907
 H        11.1218736450        4.8337744116       -3.3466308659
 H         9.5219160038        4.2392023684       -3.1589448662
 H         7.7837987949        0.9115167034       -5.5436257598
 H         8.6952094950       -0.4904178793       -4.8777203525
 H         3.8553864707       -1.5567589784       -3.0766392377
 H         4.1034303178        0.2728498843       -3.1875093816
 H         5.9375822631       -2.4841339465       -6.5173378208
 H         7.5634310764       -2.1794797471       -6.1191193215
 H         6.5663481115       -0.8859647787       -6.6790394887
 H         5.2782943911       -3.1574113644       -3.8713671397
 H         6.9946765037       -3.1305491701       -3.5262788702
 H         5.7612756229       -1.9122579848       -2.6716815776
 H         1.7875473680       -1.4338443359       -4.3936061720
 H         1.7816684817        0.3387019710       -4.5449555856
 H         0.6789012422        1.8891130126       -0.8769793212
 H        -0.8457999798        1.9618167607       -0.0056082610
 H        -0.4592466788        0.7658301097       -4.7348485914
 H         0.4922978020        1.7788787619       -3.6025281138
 H        -1.1960918533        1.6593163406       -3.4322068467
 H        -0.7884210033       -2.2089965307       -2.4851560425
 H        -2.0211282817       -1.2733120070       -3.1606582138
 H        -0.5599724685       -1.6933001760       -4.1246162753
 H        -0.3520060565        0.4595868785        1.5814710143
 H         1.1745092933       -0.1993863022        0.7386694733
 H         0.8040724221        0.2512083471        5.4991230430
 H        -0.4758739758        0.7816651019        4.4348237546
 H         3.8595022377        1.8040645312        2.3518182038
 H         3.3144468689        0.1931917170        1.8823871507
 H         4.0438875004        0.5989923238        3.4218284258
 H         1.0157750635        2.4131558522        4.7779622235
 H         2.6171481576        1.9148173187        5.0914157233
 H         2.5041934277        3.1732431930        3.9577899603
 H        -1.1978394537       -1.3146599046        5.7798510291
 H         0.1194870144       -2.1396131365        5.0656558831
 H        -5.1358092869       -4.2682718829        3.4652860089
 H        -4.7033801031       -4.1240149796        5.0841215713
 H        -1.5171071564       -3.3970889294        1.4599599190
 H        -2.6104458867       -4.5282651049        1.9919612815
 H        -0.9582901750       -4.6375614282        2.4598270149
 H        -2.2506472691       -4.8660040354        4.9341286180
 H        -0.6417997200       -4.2223956841        4.9578669902
 H        -2.0671270755       -3.4612323967        5.8570795275
 H        -6.3313075618       -1.9976893140        3.5734615238
 H        -6.8949092959       -3.2234800568        4.6671701981
 H        -6.6565243588        2.2953008384        5.9918092500
 H        -5.1358060855        1.5457653212        5.4853897156
 H        -8.5975919399       -1.7175179839        5.4172589576
 H        -9.0494396038       -0.4619600721        6.5376932642
 H        -8.4916915299       -2.1608362470        7.0697420710
 H        -6.7483069784       -0.7165193922        8.4301509945
 H        -5.4481786923        0.1197258877        7.6080527259
 H        -7.1202457204        0.7964803064        7.7036324629
 H        -5.5448004866        3.4474570500        3.9735953396
 H        -7.2732291013        2.8088493583        3.8673721361
 H        -6.7123772938        1.6008139290       -1.5980848528
 H        -5.2399759772        2.7305530451       -1.8770938670
 H        -8.0181888565        1.9909723714        0.1415829911
 H        -8.2271338515        1.4445167772        1.7769221555
 H        -7.3207069325        0.5116023776        0.6769882391
 H        -5.3627444967        4.2070848657        0.9091089117
 H        -6.9493026360        4.1490548933        0.2247339837
 H        -6.6690764742        4.4479320362        1.9864204066
 H        -4.7032698492        0.7706234569       -3.1901096746
 H        -3.7270825323        0.8564619195       -1.8716290991
 H        -6.4864225548       -2.0228762083       -5.3311547155
 H        -5.6458400166       -3.4977450323       -5.1954050487
 H        -7.2081940802       -3.1164121071       -4.2205628782
 H        -6.4609426900       -2.7180246615       -0.4271419700
 H        -5.7175025421       -3.6814093719       -1.7048497369
 H        -7.4112965633       -3.4193616998       -1.8649248561
 H        -7.4145232090       -0.4559248854       -3.7067179657
 H        -8.2013433343       -1.8139294685       -2.8765253090
 H        -7.8694781347       -0.1280798158       -2.1362421655
 Na       -3.2662470700       -0.3081837345        1.0434401329
