155

 C         9.2475878262        4.1164444958       -6.8202760323
 C         9.8848052097        4.3673349973       -5.3326006829
 C        11.0200950584        3.3906604166       -4.8120383507
 C        10.3399526415        1.9684890255       -4.3019325565
 C         8.7975528640        1.9488752783       -3.9859162328
 C        12.1735929673        3.0635602702       -5.8290474133
 C        11.5416114353        3.9414287252       -3.4219209326
 O         9.6520890873        5.4338911902       -4.7660682921
 O        10.9868437037        0.9365006886       -4.1736598336
 C         8.2528593366        0.6260496043       -4.5064334534
 C         7.0524441795        0.1990540909       -3.6395293159
 C         6.1781455116       -0.9486314902       -4.0823965027
 C         4.5901325145       -0.5109927972       -3.9424129447
 C         3.9078968110       -0.7626279660       -2.5945542285
 O         6.6989360281        0.9148695982       -2.7338465398
 O         3.9830715341       -0.1128976510       -4.9165567908
 C         6.3043561728       -1.2031225531       -5.6260021457
 C         6.3710484352       -2.2206064843       -3.2881722046
 C         2.6204999793       -0.0188070351       -2.6128458150
 C         1.3634461313       -0.8145595311       -2.0162928916
 C        -0.1219357252       -0.2422995477       -2.1952025597
 C        -0.8324055109       -0.1459820641       -0.8014141604
 C        -0.4314287313        0.9744978253        0.1441296014
 C        -0.2145036103        1.0188606857       -3.0763371351
 C        -0.8746667404       -1.4327329760       -2.8997694846
 O         1.4203439491       -1.8579141872       -1.4599496464
 O        -1.8264633821       -0.8025963301       -0.6260845510
 C         0.7621632208        0.5689531150        0.9772615467
 C         1.0597269329        1.5860897952        2.1753815612
 C         1.9492729536        1.1619048096        3.3948459091
 C         1.2780300632       -0.1119633054        4.0796645379
 C        -0.1247269137        0.0928076734        4.8687617183
 O         0.4549558070        2.6758172006        2.2330409108
 O         1.8583794976       -1.1903237640        3.9646434702
 C         3.3828833561        0.8255373716        2.9247244870
 C         2.0633887103        2.3290072853        4.3840723500
 C        -0.9243418974       -1.2249717190        4.7780312574
 C        -1.8261144625       -1.4786235886        3.5003529338
 C        -2.3851512583       -2.9036304210        3.1391974117
 C        -3.9508068023       -2.8819216454        3.3077840942
 C        -4.6016324040       -3.6295964359        4.4574431656
 C        -2.1285369090       -3.1632669326        1.7005817534
 C        -1.7659945214       -4.0130670081        3.9952288077
 O        -1.7250840907       -0.6964123379        2.5361971402
 O        -4.6476670680       -2.3505545464        2.3924920930
 C        -5.9939844553       -2.8604997995        4.9833045367
 C        -5.6342612699       -1.5003928084        5.5522148180
 C        -6.7756760561       -0.5340769116        6.0751740570
 C        -7.0743690313        0.5290127232        4.9570289414
 C        -5.9583397247        1.6895047725        4.6750076246
 O        -4.4768247723       -1.0765071019        5.4118850635
 O        -8.1516605764        0.5280289209        4.4467868070
 C        -8.0624003694       -1.3004770249        6.3299426578
 C        -6.3523026716        0.4187296674        7.3134024843
 C        -6.1210068709        2.3612997604        3.3110894461
 C        -5.4686669940        1.4688467593        2.1924532715
 C        -5.9665978236        1.8701735170        0.7041825664
 C        -4.8113989051        1.6562187851       -0.3010534355
 C        -5.1565460716        1.4330374020       -1.8591276883
 C        -7.1396959689        0.8091384894        0.5448388118
 C        -6.3182122725        3.3595078743        0.6093167391
 O        -4.6469646588        0.6570023554        2.4747997180
 O        -3.6665125383        1.5963637695        0.1285972846
 C        -4.5454790905        0.1731789012       -2.6168789455
 C        -5.2619671819       -1.1294125576       -2.0310555376
 C        -6.3793335936       -1.8684489610       -2.8164318737
 C        -5.6235246817       -2.6587675799       -3.9767106488
 C        -6.3166722742       -3.5599063124       -4.9436888623
 O        -4.9332567052       -1.5259494318       -0.9131299366
 O        -4.4321150499       -2.3878013079       -4.0952852777
 C        -7.1942396394       -2.7432885751       -1.9043843462
 C        -7.2622642538       -0.9271567904       -3.7129261560
 H         9.6369892096        4.9146332545       -7.3464519450
 H         9.5070128816        3.1465359418       -7.2979491246
 H         8.1167931892        4.3044295996       -6.6916455142
 H         8.7456278173        1.8579487994       -2.8682763691
 H         8.2551370780        2.8044220049       -4.2791844954
 H        12.6863528542        2.2220524849       -5.3383058112
 H        12.8907585078        3.8723302670       -5.8201657712
 H        11.8252821571        2.8977979169       -6.8600095756
 H        12.4858808952        3.4548775180       -3.0929016964
 H        11.8924485821        4.9788502620       -3.5447927394
 H        10.7541707017        4.0364249204       -2.6802769129
 H         7.8667390395        0.6794290641       -5.4951029680
 H         8.9819555586       -0.1947867498       -4.6952770265
 H         3.7331752516       -1.8176225147       -2.5220348120
 H         4.5736026982       -0.5991682431       -1.6796673628
 H         5.7648313814       -2.1269787797       -5.9578501165
 H         7.3386590781       -1.5434053361       -5.7450544161
 H         6.0528353633       -0.3459169587       -6.2350211031
 H         5.8052550397       -3.0720883365       -3.6220910509
 H         7.4445264988       -2.4134772827       -3.4546513374
 H         6.1707722652       -2.1582897930       -2.2081145184
 H         2.3566586489        0.2750660253       -3.5991755100
 H         2.7279517281        0.9196665613       -1.9920497738
 H        -0.3791284936        1.9179407417       -0.4412272353
 H        -1.2365094677        1.2378420905        0.8918453237
 H         0.2977804542        0.8596488167       -4.0885770764
 H         0.3344005115        1.8796853922       -2.6707783180
 H        -1.3144320984        1.2360284423       -3.2596243851
 H        -0.7497652125       -2.2839704908       -2.3231867504
 H        -1.9466503963       -1.2089846513       -2.9355484002
 H        -0.6352942997       -1.6119134682       -3.9401776618
 H         0.5459513615       -0.4135611021        1.5417862808
 H         1.6758952294        0.3386340204        0.5004879920
 H         0.0935847518        0.3731304482        5.9629029274
 H        -0.6433295001        0.9107223166        4.3949526470
 H         3.6957531889        1.5556341500        2.1833091651
 H         3.4921243167       -0.1606266481        2.4299955750
 H         3.9395536715        0.7842400816        3.8620611267
 H         1.0883853180        2.7787441558        4.3589791877
 H         2.5517676559        2.1205221644        5.3281238770
 H         2.6641704182        3.0736444346        3.8540808023
 H        -1.5975527168       -1.2606279623        5.5731759706
 H        -0.2560176237       -2.1364186935        4.8338571485
 H        -4.9564187359       -4.5873539781        4.0612764611
 H        -3.8693135745       -3.7711935880        5.2472839855
 H        -1.7519643184       -2.2492190748        1.3169221667
 H        -2.9992496160       -3.3582012410        1.1211692604
 H        -1.3785849492       -3.9918352413        1.5353556372
 H        -2.2110293983       -4.9997767826        3.7545704204
 H        -0.6876593113       -4.0980372379        3.8998177523
 H        -1.9852663695       -3.9112632590        5.0691373464
 H        -6.6669798981       -2.8691964934        4.1282422197
 H        -6.4367423008       -3.4764208486        5.7574222311
 H        -5.8613038304        2.3328539615        5.6207548286
 H        -4.9985478526        1.1653255878        4.5897573300
 H        -8.5587593832       -1.4534340682        5.3613800307
 H        -8.6821082997       -0.7268052448        6.9985919853
 H        -7.9323303919       -2.2461403355        6.8558935650
 H        -6.6820660266       -0.0059929498        8.2538854307
 H        -5.2773908069        0.4111638141        7.2729739964
 H        -6.7346334081        1.3896428502        7.1859363393
 H        -5.8063028588        3.3706776892        3.3814181456
 H        -7.1453598699        2.4701177898        3.0987164561
 H        -6.1994515139        1.3853843463       -1.9407906687
 H        -5.0188118612        2.3855819836       -2.3632746311
 H        -7.7535205475        1.0379765372       -0.2904537815
 H        -7.7034336831        0.7107207382        1.4084559224
 H        -6.6067452137       -0.1553649337        0.4386805348
 H        -5.3827127541        3.9178987292        0.6826620361
 H        -6.7150732012        3.5754243621       -0.3814555090
 H        -6.9505239213        3.7049313318        1.3700449074
 H        -4.6568107551        0.3160393515       -3.6851700501
 H        -3.4729934880        0.1479567687       -2.2979482093
 H        -5.5319834727       -3.9670931625       -5.5339871025
 H        -6.8743760091       -4.3788411035       -4.4710257304
 H        -7.1572789350       -3.0357800769       -5.4639649820
 H        -6.6326395794       -3.4561873870       -1.3229522437
 H        -7.8060191681       -3.3643720033       -2.4804864206
 H        -7.8955804070       -2.2397271007       -1.3002899251
 H        -6.5147661421       -0.5114374205       -4.4306822230
 H        -7.8898828029       -1.6693766685       -4.2638425600
 H        -7.8967431537       -0.2140852359       -3.1626042474
 Na       -3.5298757877       -0.6623690595        0.9311797189
