155

 C         9.1709592608        4.0307258886       -6.5131197665
 C         9.9753209360        4.5747916077       -5.1852903201
 C        11.0411840045        3.5250775351       -4.6119509865
 C        10.4111823924        2.0489843633       -4.5029144008
 C         8.9833321378        1.9451711418       -3.7954561995
 C        12.2365653652        3.5612850411       -5.7005661758
 C        11.7346473288        4.1043339194       -3.3264886821
 O         9.7891871694        5.6087999376       -4.6113885347
 O        10.9075611653        1.0347700448       -4.9272129559
 C         8.1039181598        0.8188094258       -4.4369208456
 C         6.8030171725        0.5549357312       -3.5884293511
 C         5.9427475354       -0.8646686694       -3.8801983550
 C         4.5291362928       -0.4281596763       -3.7399661705
 C         3.9267812050       -0.4219124516       -2.3458995402
 O         6.6563058785        1.1323184043       -2.5249878848
 O         3.9249799453        0.0910657556       -4.6691104492
 C         6.0156552421       -1.4504337010       -5.3975546281
 C         6.3606714219       -1.8432322003       -2.8273754741
 C         2.5222830458        0.1142459592       -2.3072116412
 C         1.3962184626       -0.7820816123       -1.8432126279
 C        -0.0861759447       -0.3885831284       -2.1707991860
 C        -0.8550476148       -0.2410203139       -0.7565638998
 C        -0.3607247668        0.9136397191        0.2515568846
 C        -0.2458500083        0.9499447622       -2.8807886393
 C        -0.8105766409       -1.6236763116       -2.7617818337
 O         1.6699176631       -1.9120861610       -1.4669259427
 O        -1.6791839310       -1.0914554191       -0.4844930701
 C         0.8545815776        0.6622784876        1.1178678567
 C         0.8533781907        1.5031559975        2.4050536811
 C         1.7830067896        0.9374804835        3.5317700359
 C         0.8692824970       -0.2732772452        3.9940183547
 C        -0.4337711617       -0.0017291370        4.9038057655
 O         0.2004871647        2.5155101130        2.4296686874
 O         1.2789644560       -1.4111018225        3.8082495524
 C         3.1184187666        0.5831437126        2.8748047971
 C         2.0180795119        2.0169502384        4.7026819749
 C        -1.3722863412       -1.1491554302        4.7667381730
 C        -1.8329372813       -1.5235125498        3.3599449951
 C        -2.1703514212       -3.0536483049        3.0624997149
 C        -3.6887966964       -2.9338049491        3.1999598386
 C        -4.3309801926       -3.4344397245        4.5121166432
 C        -1.8814420850       -3.2510274778        1.4648233914
 C        -1.3732443879       -4.0904130086        3.9442723960
 O        -2.0810462779       -0.6663950773        2.5591820821
 O        -4.4121018554       -2.2424039441        2.4717174037
 C        -5.6601764084       -2.5735808021        4.8200455607
 C        -5.4158432643       -1.2415519133        5.4123134733
 C        -6.5465461239       -0.3829611313        5.9807664597
 C        -6.7730666956        0.6940510633        4.8016215490
 C        -5.6858382727        1.8077466006        4.5194343059
 O        -4.2516086002       -0.8359432643        5.4208014468
 O        -7.8542040805        0.8118654766        4.2929845117
 C        -7.8412361591       -1.1612070084        5.9393862666
 C        -6.3359311331        0.1738783715        7.4884864941
 C        -5.9441234821        2.4994739802        3.1958151176
 C        -5.5063916303        1.6500320406        1.9868738833
 C        -6.1125337970        1.8380339400        0.5575101197
 C        -4.9329801176        1.4233010521       -0.4972348613
 C        -5.0837851944        1.2263267452       -2.0810747523
 C        -7.2533413740        0.7021293520        0.3385764423
 C        -6.5372352634        3.2140859688        0.3143640899
 O        -4.8195550584        0.6723378732        2.1674574818
 O        -3.8369727075        1.3032930148        0.0049437939
 C        -4.4601330332       -0.0583204057       -2.5809907073
 C        -5.2728151759       -1.2174969975       -1.9992145199
 C        -6.3679929344       -1.8562772130       -3.0162924806
 C        -5.5083380928       -2.7957690635       -4.0247418600
 C        -6.1578531021       -3.8392200752       -5.0234764708
 O        -5.0909919682       -1.6596349631       -0.8993438507
 O        -4.3513938401       -2.6439081030       -3.9396744892
 C        -7.2165538944       -2.9508228271       -2.2452692085
 C        -7.2379095528       -0.8031638820       -3.8146436058
 H         9.8955475105        4.0543689715       -7.2532802539
 H         8.8058848089        2.9959673861       -6.4118492798
 H         8.3128775753        4.6919086218       -6.6331185294
 H         9.1769460758        1.6998297920       -2.7033032151
 H         8.4706532160        2.8521666813       -3.7523705395
 H        13.0386696812        3.0417308862       -5.2568049310
 H        12.5102423755        4.5485544147       -5.9465338282
 H        11.9099334603        3.0548764555       -6.5917372752
 H        12.4371296010        3.4214427110       -2.8533207060
 H        12.1776349462        5.0662718324       -3.5161569732
 H        10.9934371237        4.3398847044       -2.5599283401
 H         7.8304979250        0.9092803406       -5.4360465869
 H         8.6096506079       -0.1799539251       -4.3579111250
 H         3.9767715593       -1.4669698913       -1.9968365859
 H         4.4968059003        0.1285262024       -1.5121449803
 H         5.0190256538       -1.9382245024       -5.4949787496
 H         6.7960792484       -2.0546972360       -5.7845268980
 H         5.9157148604       -0.5707165166       -5.9576106540
 H         5.5391210989       -2.6301111575       -2.7638430213
 H         7.3608233370       -2.3264663076       -2.9418315498
 H         6.2303176104       -1.3837408310       -1.8344149109
 H         2.3592044864        0.3621085829       -3.3853585145
 H         2.3803588097        1.0202360651       -1.6017223368
 H        -0.1437289393        1.7831212678       -0.3678909550
 H        -1.2937053073        1.1933844371        0.7729146570
 H         0.4249891475        0.9431778552       -3.8372226353
 H         0.0333454082        1.8547975494       -2.3576266935
 H        -1.2500172157        1.1726453587       -3.1659402961
 H        -0.7522243151       -2.4576744850       -2.1045283964
 H        -1.8960956083       -1.4729809417       -2.8749178520
 H        -0.3944346950       -1.9498269969       -3.7507130410
 H         1.0382377516       -0.4053480192        1.4327669437
 H         1.7110704003        0.7977071069        0.5541740332
 H        -0.2579286163        0.0727245340        6.0171485953
 H        -0.8552225594        0.9345739435        4.6654314988
 H         3.6766821685        1.4584225494        2.8212846864
 H         2.9801105361        0.0876004925        1.9093287536
 H         3.6296947854       -0.0764439434        3.5435648553
 H         1.0061239063        2.1670375898        5.0289429153
 H         2.6807728616        1.7021395422        5.5058370722
 H         2.5399291193        2.8293883402        4.2483842031
 H        -2.2088008431       -0.8097352357        5.2493353027
 H        -0.9467047189       -2.0243130111        5.2331360904
 H        -4.4222313725       -4.5405676103        4.3949487123
 H        -3.6435595038       -3.2847803680        5.4301821578
 H        -0.8789894487       -3.0386113947        1.2582140253
 H        -2.4857324059       -2.5766887137        0.9025628473
 H        -2.0696632832       -4.3231644139        1.2325150711
 H        -1.7873197153       -5.1160099665        3.7712248596
 H        -0.3697988327       -4.1128297820        3.7250382588
 H        -1.5600651380       -3.9783615349        4.9910380725
 H        -6.1889628692       -2.4070630104        3.8714804972
 H        -6.2975424297       -3.1767865267        5.4568337118
 H        -5.7979014439        2.4973748876        5.3921898220
 H        -4.7364100008        1.3515864667        4.6625701781
 H        -8.2346160177       -1.5261475761        4.9331385374
 H        -8.5442600164       -0.4365978203        6.2900317649
 H        -7.7851141047       -2.0521806903        6.5766683256
 H        -5.7458887089       -0.5758704989        8.0949941231
 H        -5.8456590421        1.1188565606        7.4231069262
 H        -7.2898098586        0.2141199208        8.0031834244
 H        -5.4479371297        3.4716521044        3.2434383513
 H        -6.9797901300        2.7995152626        3.2331662624
 H        -5.9749315510        1.4174043071       -2.5510419076
 H        -4.4800717010        2.1012369713       -2.4805383249
 H        -7.4859114537        0.5712983704       -0.7000042936
 H        -8.1039575001        0.8229833011        0.9177575795
 H        -6.7197553556       -0.2010960304        0.6863034140
 H        -5.8751227434        3.9976113573        0.7394702741
 H        -6.6536412912        3.3552274817       -0.7732911239
 H        -7.5180765396        3.3647930159        0.7392605033
 H        -4.6253336761       -0.0403643333       -3.6419857731
 H        -3.3753663855       -0.0854666363       -2.3146848216
 H        -5.6053697966       -3.6321863458       -5.9627544302
 H        -6.2047456527       -4.8845385095       -4.6974853837
 H        -7.2323961625       -3.5310096068       -5.2139980763
 H        -6.5327448560       -3.7827162153       -1.8726652096
 H        -7.9830497506       -3.4340844258       -2.7804493183
 H        -7.7512414597       -2.6663382143       -1.3567344105
 H        -6.5869946437       -0.2611813902       -4.5428259264
 H        -8.0490937774       -1.4186088146       -4.1989197120
 H        -7.5180753967       -0.0503437623       -3.1222593232
 Na       -3.6804246512       -0.7725688487        0.7168017735
