155

 C        10.2498620696        5.8104062041       -6.1890267843
 C         9.9282028653        5.0853018028       -4.8816497763
 C        10.7523333416        3.6749733070       -4.6021755610
 C         9.6524813645        2.6146259343       -4.8127261024
 C         8.9504904583        2.1271519525       -3.5657353811
 C        11.9034977431        3.2487111789       -5.5907440831
 C        11.1692162956        3.8871999486       -3.1258203017
 O         9.2785940604        5.6130837733       -4.0052863621
 O         9.1773570269        2.4489515680       -5.9177537555
 C         8.0383499297        0.9804655200       -3.8995459668
 C         6.9311981649        0.7688407381       -2.7932393434
 C         6.0437136040       -0.5803005955       -2.8888849015
 C         4.7405124414        0.0721192951       -3.2701820073
 C         3.9570049127        1.1507499737       -2.3226799452
 O         6.7071539148        1.5942220446       -1.9058022363
 O         4.3478785257       -0.0603754065       -4.4180099737
 C         6.5511174640       -1.5558241300       -4.0190849152
 C         5.9562864145       -1.2405208784       -1.4775338796
 C         2.4063845856        1.2138053152       -2.5906487558
 C         1.5826902443        0.0018505289       -2.1209629371
 C         0.0313690313       -0.1667955386       -2.4255235709
 C        -0.7277683551       -0.1431059759       -1.1195273855
 C        -0.3014546120        0.9399613289        0.0037834211
 C        -0.4519852673        1.0755115622       -3.2673135493
 C        -0.3219973010       -1.3892464433       -3.3208093630
 O         2.1631225262       -0.7357860228       -1.3236253406
 O        -1.5243246974       -0.9976247767       -0.8113895452
 C         0.1870599332        0.2675780235        1.2653720307
 C         0.5472162377        1.3097095879        2.4273033696
 C         1.6426156185        0.7077981923        3.4319086516
 C         1.0481844577       -0.6416794856        4.0085076541
 C        -0.1976484761       -0.5275532349        4.9435455349
 O         0.1800581372        2.4298569734        2.5650574570
 O         1.4284872369       -1.6923867073        3.5485151231
 C         3.0080665382        0.2795021822        2.7799621814
 C         1.7876423165        1.7572564083        4.6053014355
 C        -1.0328554392       -1.7580134859        5.0206080592
 C        -1.9481682603       -2.1311639724        3.7849510287
 C        -2.6774347909       -3.4955632577        3.6834648497
 C        -4.2184053234       -2.9833694783        3.3784012362
 C        -5.4042130244       -3.6477979095        4.1282452443
 C        -2.2743054883       -4.3384573551        2.4508216301
 C        -2.5530602049       -4.3547877019        4.9697213938
 O        -1.8800016520       -1.4377828612        2.7938959761
 O        -4.4245932978       -2.2521654267        2.4642281698
 C        -6.4672849112       -2.5586940818        4.3187869183
 C        -6.0819636278       -1.5666214642        5.2968264642
 C        -6.7800464134       -0.1857123782        5.4630803220
 C        -6.5283537658        0.6498768632        4.1412790525
 C        -5.7353324156        2.0296515656        4.1261764934
 O        -5.1734208198       -1.9125379556        6.0805747318
 O        -7.0940587335        0.3829637544        3.0988600630
 C        -8.3148787650       -0.3501641734        5.6451673947
 C        -6.2968852658        0.5036096370        6.7623678608
 C        -5.7750720386        2.5187073758        2.7007609242
 C        -5.0955371281        1.6185899749        1.6615747013
 C        -5.6857150315        1.8248631843        0.0877073584
 C        -4.6531530298        1.3149487210       -1.0582112760
 C        -5.2424116293        1.1716749813       -2.4392717990
 C        -6.9788134117        0.8696792163        0.1768212792
 C        -6.1951297132        3.2501650423       -0.2775181208
 O        -4.2063809259        0.8826437053        1.9486153237
 O        -3.4382753935        1.1589155960       -0.8485265750
 C        -4.8590353775       -0.1487679176       -2.9927094105
 C        -5.1543349495       -1.4199216371       -2.1481483208
 C        -5.7399409392       -2.6784449437       -2.8674017210
 C        -4.8532713496       -3.1388645171       -3.9864120379
 C        -5.5304492119       -4.2768360135       -4.7828448543
 O        -4.8644013745       -1.4888387577       -0.9752144931
 O        -3.7797121604       -2.6581161857       -4.2098829534
 C        -6.0113780703       -3.8948711272       -1.8776721328
 C        -7.1815839628       -2.2843042025       -3.3128804848
 H        10.1754515801        5.0327182463       -6.9523561203
 H         9.5527513847        6.6222412852       -6.3837014305
 H        11.2437676098        6.1144229716       -6.1958753045
 H         9.6847943270        1.8996652878       -2.8193358430
 H         8.2890721949        2.9557542301       -3.1858322251
 H        12.1687304113        2.2621163234       -5.1303985253
 H        12.8022475337        3.8546884412       -5.4147827171
 H        11.6127093002        3.2268290442       -6.6709394630
 H        11.5352445446        2.9906290848       -2.5951764005
 H        12.0313234262        4.5548056837       -3.1105821811
 H        10.4699058519        4.4443438248       -2.5332666614
 H         7.4674835865        1.2089233616       -4.8346400837
 H         8.4889298963        0.0496294129       -3.9997684153
 H         4.0385542093        0.8757783571       -1.2677124475
 H         4.3814745669        2.1938647183       -2.4429194759
 H         5.8180751322       -2.4248207910       -4.0354675784
 H         7.5371175789       -1.9613248891       -3.8783703906
 H         6.4342571928       -1.0404880713       -4.9645103029
 H         5.0828626420       -1.8848688494       -1.4803561575
 H         6.8544147048       -1.8767356751       -1.3625760941
 H         5.7313419511       -0.6260407381       -0.6676519684
 H         2.1109842339        1.4052782031       -3.6938296671
 H         2.0361812644        2.1696373350       -2.1608592518
 H         0.5445698186        1.4472496572       -0.3849614304
 H        -0.9953717773        1.7724867818        0.1937693561
 H         0.1145074399        1.1624792374       -4.2147442291
 H        -0.3129184664        2.0229770122       -2.7641891716
 H        -1.4637409611        0.9799467708       -3.3994389353
 H         0.3195010483       -2.1679873667       -3.0402683851
 H        -1.3128276814       -1.8062837910       -3.1060216692
 H        -0.2627807687       -1.1596431466       -4.3924718164
 H        -0.5503346924       -0.3524908853        1.8411406996
 H         1.0556038366       -0.2548618824        1.0724892130
 H         0.3024285371       -0.4957837905        5.9116754407
 H        -0.7398000327        0.3998925637        4.8790213268
 H         3.2845881564        0.9228381386        1.9556248296
 H         2.8869164543       -0.7153977259        2.2244201443
 H         3.7737944315        0.1557620112        3.5506749969
 H         0.8434385453        1.6416566779        5.1325568881
 H         2.6337244756        1.6230789725        5.2976099338
 H         1.9745773524        2.7973344335        4.2810063165
 H        -1.5644621825       -1.7340875085        5.9338260203
 H        -0.2884650335       -2.5763105260        4.9884810213
 H        -5.7828902071       -4.5556071778        3.5164407348
 H        -5.1460491301       -3.9117078842        5.1536372732
 H        -1.2871834941       -4.6937320332        2.6276156227
 H        -2.2422692375       -3.6145246349        1.6269156134
 H        -3.1102797616       -5.0816656051        2.2714858060
 H        -3.0503459771       -5.3237098945        4.6916223971
 H        -1.5657631355       -4.5423740024        5.2883678057
 H        -3.1940216938       -3.9823579343        5.7861525994
 H        -6.6840906842       -1.9930125883        3.4174330703
 H        -7.4127455558       -3.0826297121        4.5748956254
 H        -6.2352273147        2.7794864872        4.7698968772
 H        -4.7071288197        1.8869114966        4.4053922638
 H        -8.7487705837       -0.2282918037        4.6434175765
 H        -8.7336266221        0.4245666176        6.2319775501
 H        -8.6108574250       -1.2994648918        6.0700819254
 H        -6.3350201010        1.6419885868        6.7173451181
 H        -6.8958429195        0.2366048296        7.6240814920
 H        -5.2658101062        0.2302814938        7.0025885397
 H        -5.4165130085        3.5546773267        2.6244199282
 H        -6.8469591814        2.6185719630        2.4725153371
 H        -6.3125894243        1.3209082213       -2.4821078442
 H        -4.7302260125        1.9395088215       -3.0200957142
 H        -7.5794286176        1.0440630952       -0.7674172314
 H        -7.6867831900        0.9345278701        1.0229927292
 H        -6.5137984348       -0.1276186415        0.2187058743
 H        -5.3991504696        3.9541815982       -0.5226787001
 H        -6.8318544455        3.1816009009       -1.1730436526
 H        -6.7511325473        3.6754813013        0.4996129708
 H        -5.2679637413       -0.2885143396       -3.9798230357
 H        -3.7764584036       -0.2959124312       -3.2406162781
 H        -4.6962952576       -4.7637695401       -5.2589931694
 H        -6.0402955799       -5.0301330843       -4.1784208707
 H        -6.2897138837       -3.7995142476       -5.4427007365
 H        -5.0817554808       -4.5712040215       -1.8243170742
 H        -6.8509811388       -4.4424625139       -2.2933695212
 H        -6.4635715867       -3.5764420236       -0.9123939626
 H        -7.2978230356       -1.7442077642       -4.2436467964
 H        -7.8679640774       -3.0981061701       -3.1797750090
 H        -7.4671031153       -1.5739299443       -2.5715757937
 Na       -3.2806087426       -1.0843097984        0.6460294348
