155

 C        10.4464252749        5.9561439956       -6.2401868737
 C        10.0979925032        5.2889843531       -4.8605830703
 C        10.7752877474        3.8199717803       -4.5482134941
 C         9.5505890545        2.8569312295       -4.7500538744
 C         8.7392827918        2.3283624385       -3.5240081546
 C        11.9000201077        3.6292671342       -5.6443909434
 C        11.5042378011        3.6771366254       -3.1568925922
 O         9.2287534236        5.6354788074       -4.1091805205
 O         9.0690175070        2.5729015635       -5.8206962429
 C         7.7834227380        1.1520754480       -3.8513384865
 C         6.7584391229        0.7739852886       -2.6580654122
 C         5.8702840775       -0.5939989640       -2.7686704158
 C         4.5672770021        0.1190970144       -3.4237392217
 C         3.8850542828        1.0233072202       -2.4867285400
 O         6.7384251049        1.4285806838       -1.6424055182
 O         4.2465856624       -0.1860491914       -4.5611508129
 C         6.4845503154       -1.6944501944       -3.5827147109
 C         5.7370586088       -1.1074490249       -1.3109445822
 C         2.4501542713        1.1546354101       -2.8346673518
 C         1.5744222517        0.1166122010       -2.2041195995
 C         0.0654674847        0.0584687600       -2.4248809504
 C        -0.7783037402        0.0581528077       -1.0409383862
 C        -0.3418550207        0.9962230296        0.0573470893
 C        -0.5320840084        1.1764573525       -3.2349250452
 C        -0.1048966232       -1.3522833265       -3.1245034548
 O         2.0368713192       -0.7583425970       -1.5063422570
 O        -1.5769765322       -0.8769977215       -0.9263360874
 C         0.4498591192        0.2404929284        1.1157493199
 C         0.6280114673        1.2140370850        2.3550904415
 C         1.6381152923        0.6830283741        3.5328364147
 C         0.9306535159       -0.6102639280        4.0458132507
 C        -0.3805641197       -0.6586483139        4.9002028344
 O         0.0783014964        2.2797520330        2.4727163277
 O         1.3910318709       -1.7137742610        3.7459469591
 C         3.0719865428        0.4127013442        2.9127492216
 C         1.8031680783        1.7468288791        4.6817404186
 C        -1.0487302454       -2.1181580673        4.8271030592
 C        -1.9414165707       -2.1498091087        3.6735418193
 C        -2.8735854176       -3.3762310844        3.5399469765
 C        -4.3470478942       -2.9185759223        3.1517189982
 C        -5.5806033188       -3.5562709294        3.9227834059
 C        -2.3006852547       -4.3066159530        2.3757024956
 C        -2.8696968401       -4.1641773008        4.8707535524
 O        -1.9508363952       -1.2142795601        2.8901683497
 O        -4.5740296590       -2.0239571423        2.3434402708
 C        -6.7219450180       -2.4575531157        4.2085876644
 C        -6.2358184293       -1.5144056976        5.3485344771
 C        -6.8376169385       -0.1045722097        5.5666438349
 C        -6.6599554105        0.5218606718        4.1035940495
 C        -5.7822859448        1.7455042982        4.0273026418
 O        -5.3692802480       -1.8944926133        6.1024897363
 O        -7.0280888095       -0.1034963857        3.1289010507
 C        -8.3746145880       -0.2069724192        5.7754211720
 C        -6.0973639168        0.5919484050        6.6855960254
 C        -5.7930502827        2.4342238840        2.6304616212
 C        -5.1057099340        1.5549228421        1.5675965009
 C        -5.5632226541        1.6667761625        0.0172408390
 C        -4.3959769133        1.1263656568       -0.9619340492
 C        -4.8577362994        1.0526320805       -2.4419237953
 C        -6.7542339680        0.7008919597        0.0000997099
 C        -5.7522348184        3.2958020596       -0.2622263701
 O        -4.1569207504        0.8731800785        1.9359104621
 O        -3.2403566788        1.0259333699       -0.7229021408
 C        -4.9164056113       -0.3027022621       -3.0956626443
 C        -5.0991972445       -1.5304924850       -2.2082289904
 C        -5.7652264144       -2.8790618448       -2.7720330638
 C        -4.9398736704       -3.3047542830       -3.9704941005
 C        -5.1874364353       -4.2805237556       -5.1545682963
 O        -4.7092085427       -1.5605899970       -1.0748272606
 O        -3.8865477439       -2.7123783605       -4.0583998280
 C        -5.6630238674       -3.8688748072       -1.5688777189
 C        -7.2421003932       -2.5450664677       -3.1053506873
 H        10.3927387501        5.2756991840       -7.0581337251
 H         9.7807069043        6.8030696698       -6.4125714460
 H        11.5258602653        6.4070630107       -6.1402104488
 H         9.3651161810        2.0780270644       -2.6565534435
 H         8.1281855833        3.1760887184       -3.2829762097
 H        12.6735047516        2.9188085482       -5.3891039972
 H        12.3727741064        4.6199669196       -5.7063519381
 H        11.4013022291        3.3886657713       -6.5693723152
 H        12.1425728434        2.8176620608       -3.1303876670
 H        12.0542516373        4.5537603367       -2.7842497378
 H        10.7102157574        3.5305547212       -2.4300308721
 H         7.2813409354        1.2495765894       -4.8212116565
 H         8.2161352543        0.0990031172       -3.9603374089
 H         3.9662137761        0.6196519422       -1.4495483275
 H         4.4637842225        1.9214590966       -2.5235737315
 H         6.0024410595       -2.5751303912       -3.4043796501
 H         7.5242382480       -1.7490108242       -3.2278958600
 H         6.5317427128       -1.4809120898       -4.6331495231
 H         4.8917208920       -1.7824813199       -1.1478605194
 H         6.7032890198       -1.4779774145       -0.9947459366
 H         5.4000740971       -0.2694537466       -0.6099760743
 H         2.3150218568        1.2705462587       -3.8789229849
 H         2.0167812615        2.1493424423       -2.5381882280
 H         0.1126679012        1.9060003396       -0.4405833299
 H        -1.2431286151        1.3684902391        0.5465817857
 H        -0.1587332556        1.2506297301       -4.2778440653
 H        -0.2267638591        2.1006280846       -2.7031818582
 H        -1.7134426179        1.1927770907       -3.1805310673
 H         0.1622909249       -2.1679424880       -2.3857703081
 H        -1.1506447661       -1.5613736982       -3.4090346811
 H         0.5150865666       -1.3978246367       -4.0358380031
 H         0.0153933896       -0.6969003795        1.4060355835
 H         1.5751335756        0.1477160097        0.8049355515
 H        -0.0415489340       -0.3304702860        5.9009160552
 H        -1.0338990739        0.1623398046        4.5272725090
 H         3.6406958606        1.3254261247        2.6851161857
 H         3.0002053743       -0.0663477406        2.0174657839
 H         3.6774495911       -0.2061868661        3.5675792842
 H         0.9038692804        2.0529908139        5.2016499441
 H         2.4615336491        1.4018974386        5.4954797127
 H         2.4232818652        2.5266569196        4.2956055694
 H        -1.6284147624       -2.4760470576        5.7460630850
 H        -0.2763313615       -2.8229836689        4.5071549602
 H        -6.0205209246       -4.1536040413        3.1952912708
 H        -5.2980740743       -4.1094056922        4.8207634213
 H        -1.3030587291       -4.6838131693        2.7103450100
 H        -2.1864638528       -3.7006468695        1.4877587508
 H        -3.0036828622       -5.0794075373        2.3111272501
 H        -3.4743352322       -4.9877193653        5.0272849008
 H        -1.8097123285       -4.5332474743        5.0397893263
 H        -3.0536061583       -3.4399554681        5.6331539809
 H        -7.0281347431       -2.0476984956        3.2256486935
 H        -7.6151733529       -2.9925123164        4.5455710361
 H        -6.0989157630        2.5052907476        4.7596321813
 H        -4.7467695154        1.3339034204        4.2581329243
 H        -8.9554686341       -0.7867902499        5.0726735615
 H        -8.7784159252        0.8630021334        5.7596401280
 H        -8.5085703992       -0.6576392088        6.7928853928
 H        -6.5693707996        1.4557702062        7.0522513552
 H        -6.0780954495       -0.0793024817        7.5932268183
 H        -5.0661674847        0.8497525322        6.3803208185
 H        -5.1082475117        3.2625404916        2.6266333628
 H        -6.7278813695        2.9206197810        2.4845837996
 H        -5.8847593007        1.5549863646       -2.5319729856
 H        -4.2483443635        1.7582368635       -3.0153765875
 H        -7.1782095031        0.5715602815       -0.9548106701
 H        -7.4936602384        1.1069203098        0.6666182567
 H        -6.4529900269       -0.2741742774        0.4537812832
 H        -4.8138392403        3.7883207053        0.0618227089
 H        -5.8327345839        3.5081497210       -1.3331086740
 H        -6.6694438854        3.8046357231        0.2028735280
 H        -5.5576254407       -0.3731876932       -4.0084064905
 H        -3.9537969514       -0.5894891688       -3.5075086155
 H        -4.2706486102       -4.4506784411       -5.7231985997
 H        -5.4705698782       -5.2599755262       -4.7189157242
 H        -6.0871163802       -3.9301702745       -5.6029745843
 H        -4.8149519208       -3.6165213231       -1.0298188757
 H        -5.7106587470       -4.9491784383       -1.7906315980
 H        -6.5357229665       -3.5967273369       -0.9751811513
 H        -7.2305759403       -1.8140850844       -3.8935207653
 H        -7.8019161694       -3.4387936601       -3.3468891011
 H        -7.8065679006       -1.9606780680       -2.3506737395
 Na       -3.1634336932       -0.9590736970        0.8320985435
