155

 C        10.5155468294        6.2234107848       -6.0495932866
 C        10.0945579509        5.3619412488       -4.7827357126
 C        10.6478306839        3.9423871522       -4.5896892704
 C         9.4133859801        3.0126296909       -4.7422241320
 C         8.6637270837        2.5468088258       -3.5554514311
 C        11.6380621476        3.4389910776       -5.6335316001
 C        11.4389026479        3.8848608011       -3.2307927804
 O         9.2841511439        5.6331275366       -3.9108143698
 O         9.1578801039        2.5409086810       -5.8561771537
 C         7.7336727589        1.3071544644       -3.8015032947
 C         7.0079677531        0.7519988390       -2.5249009021
 C         5.9247895279       -0.4246414909       -2.6351258930
 C         4.7145972361        0.1251449383       -3.4184304597
 C         3.7959662311        1.2643577329       -2.7266983166
 O         7.0323235928        1.3908512176       -1.5103337559
 O         4.2018196262       -0.4356502708       -4.3554474513
 C         6.5326928448       -1.6405070337       -3.4492327294
 C         5.4427193226       -0.9302383117       -1.2130437956
 C         2.3154115350        1.1574900840       -3.0971826617
 C         1.5162411330        0.1553022064       -2.2472182544
 C         0.0028895170        0.0208598356       -2.4393732635
 C        -0.7431721614       -0.0945642578       -1.0544782864
 C        -0.3129741716        0.9701906043        0.0839231337
 C        -0.6236005144        1.1983177133       -3.1723406513
 C        -0.3096015478       -1.2466191071       -3.2565935955
 O         2.0883487950       -0.5795755001       -1.4622958992
 O        -1.4282675992       -1.0444307500       -0.7501597539
 C         0.7947204176        0.3350480971        0.9531754630
 C         0.7312000729        1.1675497882        2.3686015133
 C         1.6694462826        0.6563202679        3.5252865246
 C         1.0520487536       -0.7949408506        3.9417846269
 C        -0.2127199957       -0.6745778438        4.8594823572
 O        -0.0177397005        2.1600286708        2.4791984974
 O         1.6408928194       -1.8026635385        3.7887405935
 C         3.1081270511        0.3934646959        3.1490752516
 C         1.4400190841        1.6979470826        4.6330226721
 C        -1.1105394265       -1.8675270030        4.9045128561
 C        -2.0726604431       -2.0951976199        3.6739072731
 C        -3.0563587053       -3.2877270509        3.6119549280
 C        -4.6289466608       -2.8700707234        3.1108479663
 C        -5.8794568304       -3.5852098353        3.6951997627
 C        -2.6374771184       -3.9707150707        2.2538778599
 C        -3.1418508537       -4.3564764433        4.7176705567
 O        -1.9138966618       -1.2533621449        2.7829840586
 O        -4.7805602893       -2.1564980309        2.1382203945
 C        -6.8958547675       -2.7304909720        4.4152195559
 C        -6.2620111751       -1.7497124056        5.4499977233
 C        -6.8329708623       -0.1536367920        5.4809749501
 C        -6.6365728774        0.5751374696        3.9967121178
 C        -5.6985188401        1.7721325067        3.8799884508
 O        -5.3579527099       -2.0188829679        6.1686734406
 O        -7.2925217028        0.2266143132        3.0284485058
 C        -8.3411722437       -0.2056431135        5.7702138770
 C        -6.0831582966        0.6757414164        6.4961287879
 C        -5.7180824322        2.3054736297        2.4438253666
 C        -4.9380220745        1.4103252701        1.5009151104
 C        -5.4415008580        1.5368259132       -0.0005892693
 C        -4.3352202628        1.0511839274       -1.0038020894
 C        -4.6912699283        0.9787425635       -2.4684158971
 C        -6.8387461393        0.8483121907       -0.1333856377
 C        -5.6796469898        3.1021103314       -0.3609715848
 O        -3.9876415473        0.8329578154        2.0505063204
 O        -3.1787279149        1.3150788024       -0.5933164047
 C        -4.8341424600       -0.4591471345       -3.1180331264
 C        -5.1091365979       -1.6067868501       -2.0127944957
 C        -5.6040540721       -2.9431436097       -2.6876985355
 C        -4.7240398178       -3.2632185899       -3.9593808528
 C        -5.3976817790       -4.2328862423       -4.8929310909
 O        -4.6503976800       -1.3473056387       -0.8848988117
 O        -3.5395327325       -2.8890522992       -4.0892863302
 C        -5.4900190572       -4.1653257036       -1.7561948926
 C        -7.0855023258       -2.9703987090       -3.1003695829
 H        10.1648412030        5.6125575413       -6.9666060743
 H        10.0220067302        7.1933169390       -6.1244941097
 H        11.5194324544        6.4221920402       -6.0292727992
 H         9.4947283866        2.1291286161       -2.9313139244
 H         8.3191194936        3.4933940487       -3.0687477837
 H        11.7489890188        2.3768398217       -5.5080452500
 H        12.5480535006        3.9585067274       -5.7501870262
 H        10.9786924407        3.4154979220       -6.4921192048
 H        11.6553395524        2.8540923295       -2.8378311317
 H        12.3836971109        4.4048126888       -3.4149453574
 H        10.8863735821        4.4371497390       -2.4378841725
 H         6.8426443291        1.5054824858       -4.4490315268
 H         8.1403276386        0.5371195370       -4.4049348231
 H         3.9236093616        1.2313294300       -1.6801318299
 H         4.2814312929        2.2130629773       -3.1063519421
 H         5.7351037221       -2.4695442975       -3.5725299958
 H         7.4350245060       -1.9868104309       -2.9766903282
 H         6.8850816451       -1.2594264938       -4.4267290030
 H         4.4706010349       -1.4408027712       -1.2270372555
 H         6.3369936373       -1.4920378095       -0.9244535396
 H         5.3216535682       -0.2352214254       -0.4482921203
 H         2.2598122668        1.0809214941       -4.1899925904
 H         1.7603101204        2.0762644613       -3.0414532167
 H         0.0111280103        1.8460736054       -0.4187052439
 H        -1.2511867686        1.2180601703        0.6232289126
 H        -0.1593341838        1.1865463681       -4.1189034751
 H        -0.6116990447        2.2010885103       -2.6961156515
 H        -1.5770027706        0.9334074187       -3.3916448661
 H        -0.3684992321       -2.1526102202       -2.6974627416
 H        -1.2449628781       -1.0724549691       -3.7540145991
 H         0.4492467983       -1.3258309632       -4.0294451892
 H         0.5176288035       -0.7056619853        1.2523973042
 H         1.6686976483        0.3113926329        0.4329491036
 H         0.0543502589       -0.4661345576        5.9051155409
 H        -0.7500757141        0.1949621757        4.5320157840
 H         3.6730402921        1.3061033516        3.0358743436
 H         3.3171628339       -0.2763911828        2.2300449677
 H         3.6016865901       -0.0442639795        4.0341006084
 H         0.3830179905        1.9313073617        4.7439374257
 H         1.6507196993        1.3546063670        5.6460489470
 H         2.0714367214        2.5815323692        4.5034802342
 H        -1.7808980960       -1.5634721540        5.6615865938
 H        -0.5461806033       -2.7983667476        5.2257797345
 H        -6.4456598363       -4.0879759293        2.8379541787
 H        -5.4539387345       -4.3309728989        4.4104156842
 H        -1.5907185160       -4.0809251501        2.2672386693
 H        -2.9149459338       -3.2186800229        1.5119901301
 H        -3.0786340348       -4.9972027220        2.2281836537
 H        -3.3664981682       -5.3367629933        4.1386542490
 H        -2.3111011503       -4.5944736096        5.3091153278
 H        -3.9730294390       -4.1842161433        5.4422462475
 H        -7.4233639024       -2.1827289257        3.6547608194
 H        -7.7028950242       -3.3136061584        4.8942579811
 H        -5.9616719155        2.5537488568        4.5902975692
 H        -4.7046307366        1.4469505104        4.0482655491
 H        -8.8398155945       -1.1526702234        5.4310727073
 H        -8.8242901325        0.6328477197        5.3765548979
 H        -8.4594479130       -0.2511972425        6.8259880300
 H        -6.7406287583        1.4869458994        6.8888292312
 H        -5.9427788297        0.1169999327        7.3404596873
 H        -5.1925596213        1.1533285515        6.1689577798
 H        -5.3627082340        3.4012469795        2.3842525153
 H        -6.8025704358        2.4364117524        2.1055147551
 H        -5.4385234137        1.6952161899       -2.6410455731
 H        -3.8455273479        1.4644129867       -3.0369338218
 H        -7.2007404843        0.9002171148       -1.2045646872
 H        -7.5237981357        1.3052213015        0.5898986240
 H        -6.8213488759       -0.1696590009        0.0858488209
 H        -5.0976974218        3.8127129561        0.1901206228
 H        -5.6366821894        3.3796770521       -1.4146903954
 H        -6.6951533799        3.2073946988       -0.1412034763
 H        -5.5605091507       -0.5978461348       -3.8962276795
 H        -3.8180555920       -0.6374083400       -3.5930318372
 H        -4.6443360898       -4.3738957875       -5.6455729674
 H        -5.5653601656       -5.1748196667       -4.4416311967
 H        -6.3918081250       -3.8647956393       -5.1610334216
 H        -4.4169600083       -4.2412618243       -1.4198672656
 H        -5.6539570232       -4.9880707152       -2.4310027193
 H        -6.0894514012       -4.1027080248       -0.8382742556
 H        -7.4627118444       -2.0857303202       -3.7004495399
 H        -7.3382286309       -3.9583914222       -3.5592546007
 H        -7.7118775760       -2.8507814064       -2.2328801506
 Na       -2.9649763455       -0.8038954586        0.9279643615
