155

 C        10.2240963065        6.6600204580       -5.3090318338
 C         9.8777980990        5.4642143403       -4.3999194932
 C        10.3514255126        3.9222698694       -4.6168412594
 C         9.2269510016        2.9768980297       -4.7033343822
 C         8.5025292702        2.7855548550       -3.3530362293
 C        11.2247705555        3.7400978903       -5.9144248743
 C        11.2670048836        3.5779992810       -3.3689367867
 O         9.0951956308        5.8225203325       -3.5589986125
 O         8.8945820363        2.3949043500       -5.6992260585
 C         7.2365748517        2.0272849562       -3.6559508781
 C         6.7812977929        1.2760820740       -2.3711495397
 C         5.9000885967        0.0160699030       -2.3027604846
 C         4.6928918849        0.0419683539       -3.4436072802
 C         3.9640220252        1.4372976375       -3.4650395386
 O         7.1671676607        1.7233090737       -1.3204639476
 O         4.5457771911       -0.7702984082       -4.3269810253
 C         6.8219223026       -1.1675280983       -2.7443193642
 C         5.2369546721       -0.1483047974       -0.8849137570
 C         2.4569991823        1.2475270397       -3.4544328567
 C         1.7720857846        0.2738277630       -2.3375000258
 C         0.1781522935        0.0674093232       -2.4594057313
 C        -0.4072281075       -0.1206494608       -1.0274734223
 C         0.0912400433        0.7266952266        0.1113852452
 C        -0.4867261658        1.2434446405       -3.2012275840
 C        -0.0226605917       -1.1704962434       -3.3503419813
 O         2.3721287324       -0.2098348161       -1.4090479477
 O        -1.2805326625       -0.9538992730       -0.9343272933
 C         0.6435032301       -0.0420993213        1.2900089164
 C         0.5623136708        0.8297514260        2.5750602377
 C         1.2881760467        0.3128028144        3.9015430584
 C         0.4323044017       -0.9391656929        4.3387855472
 C        -0.8916578177       -0.7452172572        5.1819464404
 O        -0.0611491404        1.8812014864        2.6359429388
 O         0.7956780144       -2.0532136246        4.0023080452
 C         2.7191895337       -0.0784709556        3.5059327915
 C         1.2814353783        1.2809009605        5.1468606409
 C        -1.9687659221       -1.7915729359        5.1407839409
 C        -2.0964415538       -2.3340417098        3.6223111176
 C        -2.9848420381       -3.5418764870        3.1987040530
 C        -4.3569935543       -2.9134515839        2.8335132670
 C        -5.7053117027       -3.4863687737        3.4474684975
 C        -2.4072874460       -4.0432870411        1.7890127083
 C        -3.2475049288       -4.7450490428        4.1708679424
 O        -1.6262713341       -1.7389521617        2.6590890684
 O        -4.4499438150       -2.0153731160        2.0127461971
 C        -6.7283469854       -2.4159016340        3.9659313622
 C        -5.9798854134       -1.3022726503        4.7159483991
 C        -6.8438155960       -0.0320732668        5.2779692496
 C        -6.9077840140        1.0202965636        4.0712530174
 C        -5.8866399999        2.0641006704        3.8141745147
 O        -4.8195961113       -1.3290486228        4.9642159012
 O        -7.9212872768        0.9601041146        3.3933422943
 C        -8.2677173009       -0.4600414847        5.5729896131
 C        -6.2406485390        0.7260936913        6.4500313515
 C        -5.8459926330        2.3765551340        2.2867011909
 C        -5.1460079212        1.5423375789        1.3147612943
 C        -5.6666942010        1.6287948494       -0.1606486670
 C        -4.5679515532        1.0662070395       -1.1600715386
 C        -5.0460145046        0.5502068114       -2.4235056011
 C        -7.0329657187        0.9660629639       -0.1972840280
 C        -5.8436514677        3.0893006818       -0.5254965190
 O        -4.1479133961        1.0219431528        1.7167647833
 O        -3.3894976942        1.1025125872       -0.8986259267
 C        -4.2628661726       -0.7763126710       -2.8376038305
 C        -4.6223423953       -1.9950687624       -1.8342080851
 C        -4.8176946000       -3.4075384004       -2.4819393827
 C        -4.2227447246       -3.5281480195       -3.9133079708
 C        -5.0463479765       -4.3386530010       -5.0279954123
 O        -4.8979517461       -1.7488574493       -0.7115744099
 O        -3.0418879042       -3.2185697192       -4.0752778422
 C        -4.2000572189       -4.5954141060       -1.6405939286
 C        -6.3373628857       -3.7643346560       -2.6350606182
 H        10.1718073795        6.3257728382       -6.3476075528
 H         9.5565932858        7.4938790000       -5.1027473496
 H        11.2774545442        7.0627570574       -5.1622170823
 H         9.1819012287        2.3532952644       -2.5642237336
 H         8.2360452226        3.7461864434       -3.0042765642
 H        11.6667936592        2.7496476098       -5.9610334001
 H        12.0379322192        4.4747169518       -6.1286101442
 H        10.4749361511        3.9677778413       -6.6799729706
 H        11.5107370712        2.5348883548       -3.3042861099
 H        12.1562190225        4.1829620736       -3.3885032133
 H        10.6345242594        3.8375136818       -2.5278683900
 H         6.4050303366        2.7137762512       -3.9293073705
 H         7.4088856387        1.3250715452       -4.5336500764
 H         4.2799710533        1.9384245158       -2.6028628630
 H         4.4160094267        1.9059666310       -4.3830876195
 H         6.2033441481       -1.8367158298       -3.2632005874
 H         7.1989191792       -1.7056986413       -1.9072327738
 H         7.5667943117       -0.8718379623       -3.4582461784
 H         4.5331362424       -1.0006214101       -0.9776687680
 H         5.9175751584       -0.4910679322       -0.1144785232
 H         4.8187843092        0.8168766320       -0.6284693664
 H         2.1575307346        0.9635548464       -4.4666859160
 H         1.9743532606        2.2053957856       -3.2860364605
 H         0.7494823028        1.4995182097       -0.3587259481
 H        -0.8670628789        1.2376264975        0.4551223648
 H        -0.1121697427        1.2088534469       -4.2325385201
 H        -0.1314121018        2.2128279405       -2.7974926643
 H        -1.6370660019        1.2113818748       -3.0363312554
 H         0.0668159035       -2.1532522913       -2.7750229887
 H        -0.9968013192       -1.1227113404       -3.8082478346
 H         0.7833224266       -1.1109397354       -4.0922558723
 H         0.2023585305       -1.0308677733        1.4838437662
 H         1.6799465792       -0.2094863643        1.1512278515
 H        -0.5307272060       -0.6807116420        6.2486910912
 H        -1.2623319931        0.2359721602        4.8960888394
 H         3.3603709204        0.7501475550        3.2332968325
 H         2.7208827780       -0.7352787590        2.7077301768
 H         3.2241670426       -0.6896026588        4.2613385170
 H         0.3578797913        1.8593044491        5.3629201574
 H         1.6201677619        0.8870967602        6.1137556161
 H         1.8943101150        2.1482774036        4.9454137734
 H        -2.9274463356       -1.5381308589        5.5528859165
 H        -1.7105630530       -2.6303290986        5.9090309241
 H        -6.1057635833       -4.1284067033        2.7129274315
 H        -5.4448671177       -4.2015183323        4.2356857215
 H        -1.4401711421       -4.4522668626        2.0321951604
 H        -2.4035510365       -3.2019017464        1.0981845845
 H        -3.1143197031       -4.7849417685        1.4310000613
 H        -3.8488613469       -5.4061957756        3.5624859821
 H        -2.3509355690       -5.3093210807        4.4020426199
 H        -3.8275455059       -4.7145565460        5.0411720753
 H        -7.3598731992       -2.0607687598        3.1488709553
 H        -7.4157034693       -2.7935331727        4.7266150098
 H        -6.1683738910        3.0253733553        4.3378629111
 H        -4.8784578986        1.9349649492        4.1649472570
 H        -8.7405937872       -1.1130405484        4.8140151964
 H        -8.9409850313        0.3756550697        5.7750256465
 H        -8.1871316761       -0.9140599004        6.5575241940
 H        -6.7510027877        1.6798866321        6.5894097000
 H        -6.3601897441        0.1443070408        7.3801646653
 H        -5.1286948508        0.8440897082        6.3855579739
 H        -5.2436775607        3.3065553273        2.1434401148
 H        -6.8782817358        2.6199480260        1.9482370096
 H        -6.1116763960        0.3538565610       -2.3465930007
 H        -4.8221392024        1.4182710054       -3.2002861065
 H        -7.5755232137        1.4009722190       -1.0391676260
 H        -7.6259356716        1.3002059114        0.6585308243
 H        -7.0953225861       -0.1091498503       -0.2985863875
 H        -4.8727983988        3.5616923272       -0.3992790189
 H        -6.1537633671        3.2140889591       -1.5675361242
 H        -6.5382888835        3.6139084059        0.1645807758
 H        -4.7931127815       -1.1125751280       -3.6851421238
 H        -3.1903445889       -0.5017590562       -2.9447039981
 H        -5.0756908986       -5.4050733259       -4.6990056640
 H        -6.0000267294       -3.8808827710       -4.9812711640
 H        -4.4952109548       -4.2438198528       -5.9657200000
 H        -3.1649585077       -4.6253919611       -1.7759243869
 H        -4.6573785383       -5.5490347182       -2.0470747805
 H        -4.5002384933       -4.4891658407       -0.6228007305
 H        -6.8821857303       -3.2169125969       -3.4042387339
 H        -6.5025239320       -4.7522966386       -3.0188456181
 H        -6.8924735106       -3.7006680675       -1.7575115204
 Na       -2.8753586733       -0.7185943678        0.8204591092
