155

 C        10.2392417592        6.5893721397       -5.3328986836
 C         9.8132461132        5.4569951154       -4.3883852014
 C        10.3321772200        4.0738243702       -4.6397977008
 C         9.1920338579        3.0091149564       -4.7067451359
 C         8.4502924451        2.7345872020       -3.4053951577
 C        11.1774120264        4.1323921647       -5.9431695058
 C        11.2710834151        3.6207027774       -3.5364483092
 O         9.0533168634        5.6952284739       -3.4455157172
 O         9.0910681955        2.4835869909       -5.8395347481
 C         7.1718250348        1.9198815266       -3.5606081000
 C         6.7977218942        1.3926380767       -2.1641053570
 C         5.9763844782        0.0565321546       -2.2147547357
 C         4.8929579594        0.1888667809       -3.3587214900
 C         3.9061884493        1.4840279454       -3.2105113672
 O         6.9664196776        1.9166359001       -1.1097768582
 O         4.6186021639       -0.6765230279       -4.1389616919
 C         6.9508989440       -1.0987067859       -2.5579776900
 C         5.3578925976       -0.3577932587       -0.8875527398
 C         2.4966256457        1.0634730908       -3.6302256424
 C         1.7665370613        0.3744852398       -2.4058880908
 C         0.1567223629        0.0874298126       -2.4445268574
 C        -0.4865357435       -0.0099785460       -1.0481861763
 C        -0.0317435952        0.9620615641        0.1040203648
 C        -0.6110344674        1.2867965181       -3.0953812524
 C         0.0659710738       -1.2052615699       -3.2197080295
 O         2.2902312133        0.0338672605       -1.3825366551
 O        -1.4070449395       -0.8152916883       -0.9067801418
 C         0.6583798028        0.1376112507        1.1715987891
 C         0.4286183353        0.7752387937        2.6008076165
 C         1.1443912435        0.1150678294        3.8393014197
 C         0.3335134047       -1.2101385066        4.3605321148
 C        -0.9348267050       -0.9545400202        5.2885923909
 O         0.0501190555        1.9479252695        2.6494416990
 O         0.8001085553       -2.3203249641        4.3807821525
 C         2.5928528000       -0.3880371336        3.5974276801
 C         1.1364021515        1.2752203099        4.9161094864
 C        -1.7867590247       -2.2651606404        4.9633791840
 C        -2.1677430200       -2.2719436985        3.5332086246
 C        -2.8914350663       -3.5945277717        3.0490956094
 C        -4.4988858438       -2.9911695229        2.7149176773
 C        -5.7648164418       -3.5027064601        3.5507081887
 C        -2.3320516389       -4.2635674187        1.7945712148
 C        -2.7814665301       -4.6096394932        4.1554432923
 O        -1.7130602691       -1.4383547355        2.7356044137
 O        -4.6035875929       -2.0969608608        1.9443362252
 C        -6.7030769990       -2.3410324200        3.8514299924
 C        -6.0308840836       -1.0325788966        4.5590980954
 C        -6.9211098461        0.0595018143        5.1172819318
 C        -7.1322787831        1.1473692044        4.0101049240
 C        -5.9251715237        1.9916515428        3.7979980182
 O        -4.8034941382       -0.9317245840        4.6206514123
 O        -8.1397610022        1.2083535154        3.3274289861
 C        -8.3209991845       -0.4866349620        5.5784026033
 C        -6.1782793426        0.5785752995        6.3369184328
 C        -5.8083815509        2.7188784465        2.3737290182
 C        -5.1789180705        1.7921357539        1.3600979799
 C        -5.5833279379        1.7876738697       -0.1193689902
 C        -4.6340795233        1.0638752225       -1.1598906310
 C        -5.0880994002        0.3379940509       -2.4392668458
 C        -6.8146888676        0.8111759127       -0.0617534910
 C        -5.8831084407        3.2069958603       -0.6889281861
 O        -4.4617246121        0.9837556079        1.9146377798
 O        -3.4122991355        1.0704331881       -1.0033969550
 C        -4.5258018620       -1.0095592974       -2.9753223404
 C        -4.5701594890       -2.1534413754       -2.0084413862
 C        -4.8270895857       -3.6396842360       -2.5213077118
 C        -4.1058803454       -3.6401443248       -3.9499357926
 C        -4.6372401540       -4.2526158209       -5.2750203191
 O        -4.4616594505       -1.9948117854       -0.7839229515
 O        -3.0036143484       -3.0965638879       -3.9934580276
 C        -4.0156014295       -4.5829538069       -1.5349703759
 C        -6.3033161264       -3.9909911864       -2.4146846866
 H         9.9301284269        6.4334025982       -6.4056704180
 H         9.7976296764        7.4690631830       -4.8454595022
 H        11.2752783501        6.7156517221       -5.4431196403
 H         9.2126701363        2.2410341671       -2.8361234312
 H         8.1934356472        3.6934151673       -2.8092660288
 H        11.7441641423        3.2203842868       -6.0246735732
 H        11.9498711962        4.8059969318       -5.7362230289
 H        10.7313680006        4.4991415862       -6.8231502704
 H        11.4478406009        2.5452473383       -3.6291249189
 H        12.2036175303        4.1422165701       -3.7132758325
 H        10.8486150443        3.8208677441       -2.5645399723
 H         6.3607881149        2.6240966839       -3.8241171737
 H         7.2502210153        1.0582765840       -4.2155628891
 H         3.9429409300        1.7240183050       -2.1138182792
 H         4.3449998133        2.2516955137       -3.7743534583
 H         6.3555904331       -1.9696434023       -3.0031207049
 H         7.4465219075       -1.4779737254       -1.6851284418
 H         7.6180998744       -0.8219084986       -3.3574032500
 H         5.0893135354       -1.4047115340       -0.9561498889
 H         6.1130959720       -0.3355095224       -0.0696797991
 H         4.5560719637        0.3182237538       -0.6998240062
 H         2.6321352168        0.3742042553       -4.4849202552
 H         1.8325828423        1.9234096071       -3.8568998272
 H         0.6699250400        1.6677750422       -0.3200453565
 H        -0.8583581364        1.5282837935        0.5075623287
 H        -0.2844115489        1.1916565273       -4.0972881664
 H        -0.3834665024        2.3016553265       -2.7846700346
 H        -1.5938249807        1.1044953807       -2.9930334254
 H         0.5558666238       -1.9747361021       -2.6783053073
 H        -0.9779087234       -1.5426870470       -3.4487830715
 H         0.5791205491       -0.9489803598       -4.1753846861
 H         0.3215781279       -0.9174050384        1.2399068303
 H         1.7497965762        0.0851971604        1.0134456502
 H        -0.6554404326       -0.8771970194        6.3206982661
 H        -1.4894198833       -0.0412796335        4.9866491083
 H         2.9830725554        0.0840828886        2.7115024847
 H         2.7635328499       -1.5093063028        3.4167955822
 H         3.2143003860       -0.1412635982        4.4247801074
 H         0.1786728956        1.5711448673        5.2562964809
 H         1.6356890532        0.9585743371        5.8304143247
 H         1.6923730288        2.2084335560        4.7142461368
 H        -2.6905424967       -2.3073684741        5.6588392024
 H        -1.3765958319       -3.1864298691        5.2149077305
 H        -6.2267174602       -4.3818370251        2.9739389707
 H        -5.3632887589       -3.9989081315        4.4334254362
 H        -1.5403670891       -4.9025608717        2.1124966546
 H        -2.0701534193       -3.5300089977        1.0545485289
 H        -3.2322191737       -4.7561082943        1.4180816939
 H        -3.3682277587       -5.5397947370        3.9568271818
 H        -1.7836871223       -4.9516704573        4.3616759900
 H        -3.3192046079       -4.2857103842        5.0748949795
 H        -7.0771433188       -1.9445875460        2.8883761754
 H        -7.5589858579       -2.7151178344        4.4351142901
 H        -5.9913439036        2.7867147940        4.4828715167
 H        -4.9010581776        1.6387754751        4.0032157006
 H        -8.9918139056       -0.4894105758        4.7011072517
 H        -8.7626568244        0.2933018511        6.2007296426
 H        -8.3402671994       -1.3704142383        6.2358376889
 H        -6.5623332725        1.5867121409        6.5521943989
 H        -6.4184203272        0.0217229223        7.2022988446
 H        -5.1345286394        0.5265452627        6.2801702837
 H        -5.1910612365        3.6435511131        2.5206517510
 H        -6.8160170458        3.0104444547        1.9774401876
 H        -6.1832249371        0.1724077524       -2.3888098327
 H        -4.8231769574        1.0148202558       -3.1675269258
 H        -7.5881781778        0.8391561065       -0.8343028677
 H        -7.3592550113        0.9603964630        0.8580186545
 H        -6.4366459239       -0.1790658759        0.0642923803
 H        -4.9743925789        3.8510245519       -0.7197083163
 H        -6.3630929476        3.1690380537       -1.6941011569
 H        -6.5472527782        3.6717256934        0.0209845225
 H        -5.1258678404       -1.1743330425       -3.9154741897
 H        -3.4572410975       -0.8616490828       -3.1469801425
 H        -5.2198778125       -5.0575390755       -4.9268861562
 H        -5.2159457443       -3.4563441584       -5.7402872325
 H        -3.7779200321       -4.6569310106       -5.7838210176
 H        -2.9415422868       -4.4232954298       -1.7891127192
 H        -4.3191743261       -5.5683771609       -1.5851073482
 H        -4.3188429514       -4.2768188881       -0.5390968828
 H        -7.1220486039       -3.4827668470       -2.9167997445
 H        -6.4978243523       -5.0250270739       -2.7590361630
 H        -6.5781165361       -4.0148339319       -1.3177925286
 Na       -2.9214757079       -0.9166105089        0.8118257458
