155

 C         9.9629416061        6.7771413659       -5.2399312815
 C         9.7999318155        5.6649229588       -4.1878401945
 C        10.5100328005        4.2494606709       -4.7040399809
 C         9.4583380006        3.0676457646       -4.6168877980
 C         8.9709530105        2.7040469397       -3.2176210173
 C        10.9282785800        4.2389804475       -6.1556586766
 C        11.6809837108        3.9967885812       -3.6208166025
 O         9.0648220136        5.7860669488       -3.2085612543
 O         8.7736624730        2.6916419867       -5.5756204709
 C         7.6141084000        1.9369582492       -3.5038240707
 C         6.8023748264        1.5234532271       -2.2333968697
 C         6.1900609143        0.0518402146       -2.1531089496
 C         4.8735999055        0.0322827643       -3.0738256901
 C         3.9640660152        1.1879425782       -2.9725138941
 O         6.7009820975        2.2712468541       -1.2880498224
 O         4.6512554107       -0.7818971546       -3.9255010906
 C         7.2250480522       -1.0912510243       -2.5006212969
 C         5.6262643271       -0.1218012409       -0.6930738876
 C         2.4665410122        0.9420648234       -3.3414960014
 C         1.6105305068        0.5790421642       -2.1560273525
 C         0.0725183728        0.0920116078       -2.4069489877
 C        -0.6480141181       -0.2045080370       -1.0013383740
 C        -0.2879434158        0.7215291022        0.3080547254
 C        -0.7196425949        1.2924291278       -3.0491308449
 C        -0.0045503498       -1.1626595398       -3.3512627978
 O         2.0760472318        0.4273300004       -1.0682552082
 O        -1.4846219214       -1.0411829801       -0.8741533709
 C         0.3810935390       -0.0635136394        1.4520624751
 C         0.4216229732        0.6906278879        2.8199685159
 C         1.3855622053        0.1874823981        3.8694672505
 C         0.6681636306       -1.2209050034        4.3176785802
 C        -0.8180441787       -1.0011843194        5.0350443671
 O        -0.3068152731        1.6756487853        3.0502709984
 O         1.1443240022       -2.3206768931        4.2269133727
 C         2.7732957300       -0.1324137223        3.3253876573
 C         1.5117170322        1.1362726835        5.1106663278
 C        -1.8449221016       -2.1717908329        4.9650642598
 C        -2.3425789684       -2.4180891617        3.5717747139
 C        -3.1072497152       -3.6184496931        3.1017012928
 C        -4.6906476858       -3.1208393692        2.7057114361
 C        -5.6636747989       -3.3924375818        3.9604820206
 C        -2.3759503247       -4.0581772755        1.7176618516
 C        -3.0355089467       -4.9918654561        3.9318737030
 O        -2.1754833485       -1.4769635035        2.7497711918
 O        -4.9890535523       -2.5033852535        1.7359799301
 C        -6.6814542891       -2.2299826113        3.9682135592
 C        -6.0453081802       -0.7839140829        4.3024704326
 C        -7.0179713719        0.1991741579        4.8934830636
 C        -7.0685138864        1.4419165979        3.8968984099
 C        -5.7893601865        2.2647424129        3.7655305573
 O        -4.8946332402       -0.5694443805        4.0251512475
 O        -8.0020419319        1.4838864283        3.1071664365
 C        -8.5304304485       -0.2985237671        5.1480710273
 C        -6.4515806603        0.5985698898        6.2366752145
 C        -5.7556575468        2.8730204563        2.3246333357
 C        -5.0923533504        1.7494875646        1.4244450406
 C        -5.8878789133        1.4249321760       -0.0083415997
 C        -4.9773415435        0.7041504410       -1.1365924596
 C        -5.5286722857        0.0438395466       -2.4295963538
 C        -7.2572479761        0.6414857411        0.2133859583
 C        -6.0728662395        2.8661045841       -0.5018602422
 O        -4.1999309407        1.0886798654        1.7626001404
 O        -3.7461010700        0.8609788487       -1.0705419361
 C        -4.5280715355       -1.1011360299       -2.9845010016
 C        -4.2727985487       -2.2590657827       -2.0142183352
 C        -4.4397326058       -3.6601946477       -2.7065164960
 C        -3.7438100735       -3.7074122093       -4.0640734537
 C        -4.2020393931       -4.4433485500       -5.3172889184
 O        -4.0958607518       -2.1579769172       -0.8425171422
 O        -2.6698658013       -3.0750030513       -4.2329325980
 C        -3.7754506963       -4.8081621765       -1.8206796470
 C        -5.9100099910       -4.0129839741       -2.7711769443
 H         9.2891396609        6.6016110011       -6.1794810347
 H         9.5560459734        7.6761564563       -4.7798893351
 H        10.9008189881        6.7917350648       -5.6926541697
 H         9.6217152229        2.0121931033       -2.7212666169
 H         8.9286639678        3.7280887860       -2.6240842065
 H        11.1628862824        3.1556566669       -6.3132822651
 H        11.6947886538        4.8701231306       -6.5656678387
 H        10.0159888769        4.3456850356       -6.7772971621
 H        12.1201031803        3.0403800326       -3.9111270988
 H        12.4561318963        4.7374890740       -3.6182280631
 H        11.2442472324        3.9424405317       -2.6339353904
 H         6.9668397658        2.7253182814       -3.8789973795
 H         7.9150895171        1.1377186519       -4.0931477489
 H         4.0656042537        1.6865264040       -1.9901058428
 H         4.2677848287        1.9172491812       -3.6680086389
 H         6.9924400636       -2.0241535376       -1.9482111850
 H         8.1996339496       -0.8250066427       -2.2913132185
 H         7.1681239766       -1.3229177857       -3.5287151947
 H         5.1582532695       -1.1478250721       -0.6462244496
 H         6.5411191052       -0.0841176393       -0.0132931076
 H         4.8840509406        0.5622709889       -0.3812834083
 H         2.3734371239        0.0500680294       -3.9153722220
 H         2.2574744645        1.8723874934       -3.7875135070
 H         0.4512204378        1.4720833096        0.1212306701
 H        -1.1795934881        1.3326212337        0.6141434659
 H        -0.3333356028        1.4613239742       -4.0183549269
 H        -0.4635139281        2.2095121647       -2.4002039355
 H        -1.7645597221        1.0907426162       -3.1224960815
 H         0.7206385520       -1.8446923155       -2.9656973343
 H        -0.9984515124       -1.6674759822       -3.2877676618
 H         0.0784834567       -0.8226336701       -4.3974413403
 H        -0.1532380545       -1.0052728271        1.7408992416
 H         1.3860072897       -0.2968458489        1.1960825050
 H        -0.5971966812       -0.8098048777        6.0870455831
 H        -1.2169509124       -0.0684447013        4.5482618978
 H         3.3050459319        0.7537623999        3.2560091848
 H         2.8145081083       -0.4862138495        2.2833363082
 H         3.2905359607       -0.7544559836        4.0053623509
 H         0.5443977844        1.4635704613        5.3918830796
 H         1.8438174294        0.6566500253        6.0227342151
 H         2.2726865797        1.9337791069        5.1013263661
 H        -2.7202335914       -1.9770386457        5.6601212465
 H        -1.5403234955       -3.0601316580        5.5185653347
 H        -6.2814768048       -4.3581554842        3.9111809279
 H        -4.9947828886       -3.3993631552        4.8119415706
 H        -1.3527523272       -3.9668535889        1.8667810380
 H        -2.7362281928       -3.3982610628        0.9286977893
 H        -2.7434211965       -5.0886768256        1.4993503132
 H        -3.7153127566       -5.7617359429        3.4844201779
 H        -2.1088064631       -5.4555607103        3.8921057016
 H        -3.1636425291       -4.8746153338        5.0067875632
 H        -7.0432938024       -2.1368024739        2.9553670706
 H        -7.4763554656       -2.5657328396        4.6462657760
 H        -5.6680764487        3.0398168262        4.4491680327
 H        -4.9818831046        1.5638372430        4.0548778983
 H        -8.9514187173       -0.7558920920        4.1897996064
 H        -9.1258020659        0.5869603549        5.3006532217
 H        -8.5907911079       -0.9972837623        6.0020471236
 H        -7.2265905051        1.1434465643        6.8758766647
 H        -6.2784186765       -0.3178067874        6.7487860331
 H        -5.5024746523        1.1244352141        6.2056847806
 H        -5.0597897565        3.7521287570        2.1126108015
 H        -6.8681563850        3.0140745356        2.1175337331
 H        -6.4391309165       -0.4971738626       -2.0805361624
 H        -5.7246422810        0.7618518094       -3.2102414037
 H        -7.8076617766        0.7648678181       -0.7465433534
 H        -7.9172449379        0.9756877836        0.9986198343
 H        -7.1771668440       -0.3651707956        0.3696460255
 H        -5.0465612095        3.2510159657       -0.6580685838
 H        -6.5721597536        2.8837795038       -1.5077984901
 H        -6.6719443363        3.4911919216        0.1210094371
 H        -4.8807899834       -1.4012291603       -4.0040175141
 H        -3.5073079675       -0.6902377725       -3.0747562938
 H        -5.2116472719       -4.7507473774       -5.0824872680
 H        -4.1829253782       -3.7170702429       -6.1226001016
 H        -3.5675127288       -5.3474717466       -5.4021958313
 H        -2.8581301733       -4.3229204438       -1.5495710066
 H        -3.6352201324       -5.6965486529       -2.3687534314
 H        -4.3876273751       -5.0723553850       -0.9988399950
 H        -6.5764283645       -3.4811126140       -3.4218084380
 H        -6.0557890169       -5.0563790366       -2.9824093851
 H        -6.4220931336       -3.8960638714       -1.8287217622
 Na       -3.0649164730       -0.8341425568        0.7893849647
