155

 C         9.6000920765        7.0446420025       -5.1226136013
 C         9.7241376703        5.7236560404       -4.2168639477
 C        10.4642589522        4.5225494882       -4.7150792031
 C         9.3924676873        3.3951180894       -4.7563769468
 C         8.8754959209        3.0373907493       -3.3427973887
 C        11.0952629821        4.5445450737       -6.1654813870
 C        11.6472445917        4.2116672124       -3.7407832654
 O         9.6038385271        5.7433593963       -3.0240929755
 O         8.9347428595        2.9956008855       -5.7697812050
 C         8.0192463124        1.7043022841       -3.3788449361
 C         7.0318775322        1.4739448532       -2.1560628218
 C         6.2526503016        0.0895515051       -1.9240476637
 C         4.9708414465        0.1089779139       -2.8525570142
 C         3.8743859035        1.1987269195       -2.8662530775
 O         6.5736859945        2.4585958215       -1.5876014490
 O         4.6089543130       -0.8886713946       -3.4281589655
 C         6.9997261148       -1.2584011011       -2.2484601267
 C         5.7817982280        0.0065043548       -0.4448914313
 C         2.3979220442        0.7706349165       -3.0193979952
 C         1.6397698467        0.4394335131       -1.7188552836
 C         0.1841316384        0.1989991710       -2.0019157675
 C        -0.7159444971       -0.2021522028       -0.6632693876
 C        -0.6366013512        0.7041970738        0.5510808528
 C        -0.3863416433        1.5085268461       -2.6583016334
 C        -0.0800827540       -1.0010494550       -3.0082469483
 O         2.2528969206        0.3876854228       -0.6539512484
 O        -1.3108460114       -1.2338336928       -0.6436463979
 C         0.4265592426        0.0063436223        1.4664493056
 C         0.4098908772        0.7416645291        2.7952535340
 C         1.3287565274        0.1302345273        3.8762007716
 C         0.7525454682       -1.2812375341        4.3552733791
 C        -0.5601535393       -1.3135252803        5.2065174469
 O        -0.4420047321        1.5791803325        3.0269157434
 O         1.0820649301       -2.2653538327        3.7372606255
 C         2.6609039008       -0.1730725679        3.1478836148
 C         1.4721802689        1.1051368450        5.0702996020
 C        -1.4869672862       -2.3858583966        4.8615053789
 C        -2.2307007548       -2.3033696613        3.5242609829
 C        -3.0682192068       -3.5301982613        3.0691624591
 C        -4.5949391063       -3.0075766324        2.8987357428
 C        -5.7359094886       -3.3997891998        4.0923947579
 C        -2.6549937380       -4.1169060776        1.7327308595
 C        -3.0955833888       -4.6902491022        4.1158973134
 O        -2.1957121404       -1.3163787754        2.7349658969
 O        -4.9708477002       -2.2851712752        1.9935593336
 C        -6.8532467730       -2.3464248444        4.1503568368
 C        -6.1341086249       -0.9597789920        4.4038358608
 C        -7.1618004853        0.3492102323        4.7413397356
 C        -7.0502269066        1.4789035264        3.6960376705
 C        -5.7422970164        2.1718353167        3.5776614339
 O        -4.9806591986       -0.7610939600        4.3356561646
 O        -7.9912388370        1.9096415438        3.0320506909
 C        -8.6183045320       -0.1468747900        4.8793565157
 C        -6.7013442049        0.8938225708        6.1059364685
 C        -5.5682583391        3.0051474402        2.2269133568
 C        -5.2144271250        1.8323215012        1.2472882214
 C        -6.0069666665        1.4465462118       -0.0671579442
 C        -5.0508782888        0.6906352997       -1.1184354151
 C        -5.7647123755       -0.4034315983       -1.8851114221
 C        -7.2350148594        0.6987580758        0.3933548459
 C        -6.4436014766        2.6331236233       -0.9718765261
 O        -4.4698895671        0.9668950144        1.5779113567
 O        -3.8298716845        1.0293407882       -1.2635182898
 C        -4.7791533008       -1.2535849352       -2.7439273217
 C        -4.3100619587       -2.5936217051       -2.2518171583
 C        -4.3059515394       -3.9068946207       -3.2075395417
 C        -3.3596418851       -3.7306200586       -4.4244123480
 C        -3.5689046835       -4.8098759609       -5.4429362325
 O        -3.8591105392       -2.6880639354       -1.1399450811
 O        -2.6203093728       -2.7384797028       -4.5182694842
 C        -3.6607341263       -5.1130820708       -2.4806048802
 C        -5.7114593541       -4.2070878515       -3.5192449826
 H         9.7386219192        6.8044325506       -6.2288015639
 H         8.6050691182        7.4959979902       -5.0720825912
 H        10.3417745990        7.7599056920       -4.7808350002
 H         9.7361154706        2.8546133568       -2.7617742411
 H         8.1681578704        3.8890578094       -2.9655334126
 H        11.3625848205        3.5154688157       -6.5263209637
 H        12.0246039162        5.1268976919       -6.2074260765
 H        10.4729965535        4.8380455483       -7.0433785402
 H        12.1618117205        3.2469382622       -3.9260355303
 H        12.3767566274        5.0134051399       -3.8101501320
 H        11.2184936965        4.3347007886       -2.7398033287
 H         7.4196679114        1.9475770378       -4.3163817277
 H         8.6099448331        0.8384539728       -3.4542324497
 H         3.8591006638        1.7905770871       -1.9187261236
 H         4.2049568285        1.9124175123       -3.6029456498
 H         6.3309704450       -2.1008507765       -1.9548651330
 H         7.9450829551       -1.3738077833       -1.7819750024
 H         7.2721390262       -1.3796027454       -3.2944612250
 H         4.9571001469       -0.7193465608       -0.3551805331
 H         6.6858961326       -0.2397153308        0.1453410149
 H         5.3744350829        0.8896481296       -0.0846629222
 H         2.3996155443       -0.1139367298       -3.6527883618
 H         1.9022049435        1.6307342666       -3.3726319126
 H        -0.1790586054        1.6614950368        0.3086697518
 H        -1.6949498988        0.9454128303        0.9836473509
 H        -0.0510231271        1.5055804310       -3.7162269254
 H        -0.1171442748        2.4553140943       -2.1345063745
 H        -1.5341158620        1.3827456582       -2.8155668296
 H         0.3444671938       -1.9249892193       -2.6103784609
 H        -1.1606617177       -1.0618602595       -3.0474165949
 H         0.3422155603       -0.8387180059       -3.9960483176
 H         0.1433647309       -1.0420871862        1.6660241962
 H         1.3510568754        0.0896422041        1.0089151385
 H        -0.1856021363       -1.3407118124        6.2320532134
 H        -1.1019292604       -0.3481572829        5.0442719985
 H         2.9377474708        0.6105629246        2.4647705929
 H         2.6296419531       -1.1633286455        2.6772377912
 H         3.4624466934       -0.1034860044        3.8993266786
 H         0.5990477405        1.1911354315        5.7513427404
 H         2.2803833648        0.7601938469        5.7426046726
 H         1.6667879599        2.2046379761        4.8944753597
 H        -2.0400062859       -2.8557438715        5.7343831149
 H        -0.8471326308       -3.2874495686        4.6864245427
 H        -6.1093017101       -4.4099424278        3.8010839762
 H        -5.2674501752       -3.4379276576        5.0531839016
 H        -1.8277990177       -4.7442473513        1.8813465233
 H        -2.5106966718       -3.3661662673        0.9480476139
 H        -3.4748637977       -4.8776836561        1.5456676324
 H        -3.7482646517       -5.5248490556        3.7022080906
 H        -2.1518523984       -5.1165822482        4.1799663715
 H        -3.3242246256       -4.4508892512        5.1503571856
 H        -7.4834133384       -2.3154649410        3.2981770045
 H        -7.4060311136       -2.5105762765        5.0850635985
 H        -5.5615166772        2.7131715774        4.4756322233
 H        -4.8323622688        1.5103741971        3.5371847190
 H        -9.0074355966       -0.3430905562        3.8504793219
 H        -9.1302241651        0.6482704720        5.3128458950
 H        -8.7073764653       -1.0525277244        5.4316523644
 H        -7.1589309901        1.9197329137        6.3227185134
 H        -7.0816740711        0.1974781760        6.8211143683
 H        -5.6096127818        1.0512243842        6.1800278368
 H        -4.6730943058        3.6710840985        2.4226898142
 H        -6.4574556456        3.5758404476        1.8134836737
 H        -6.2972478930       -0.9616749304       -1.0797199482
 H        -6.5727524360        0.1728972030       -2.4213267313
 H        -7.8671222001        0.1774383883       -0.3961743595
 H        -7.9408524481        1.3853828831        0.9060178170
 H        -7.0214260724       -0.0537753576        1.0969459940
 H        -5.6290964209        3.3195939019       -1.0459807704
 H        -6.8114248331        2.3681874695       -1.9665846556
 H        -7.1881648396        3.1243386705       -0.4199575101
 H        -5.0604453572       -1.3025216872       -3.7940172976
 H        -3.9322174426       -0.5342238694       -2.7963830800
 H        -4.5559007844       -4.5402818093       -5.8847105623
 H        -2.7460851772       -4.7350786734       -6.1346968170
 H        -3.5770324429       -5.8086488350       -4.9359623155
 H        -2.5798201093       -5.0627440486       -2.5463719831
 H        -4.0147807846       -6.0350059122       -3.0488493119
 H        -3.9381159178       -5.1202713832       -1.4125128860
 H        -6.1349312983       -3.5417462376       -4.2695445317
 H        -5.9525230674       -5.1950430886       -3.8710647347
 H        -6.3802901492       -4.0518423666       -2.7116111881
 Na       -3.5048007218       -1.1473896634        0.5577952136
