155

 C         9.4342349937        7.0574847297       -5.0586307803
 C         9.8127691074        5.9015678627       -4.1319022844
 C        10.5518283025        4.5487116822       -4.6131503595
 C         9.3341749207        3.3852076578       -4.6782881055
 C         8.5176097134        3.0131580754       -3.4273483802
 C        11.0212316127        4.7510610136       -6.0918024706
 C        11.7360025665        3.9758879505       -3.7546471257
 O         9.5888843420        6.0661499033       -2.9317542862
 O         8.9403107752        3.0223170867       -5.8093187519
 C         8.1784392227        1.5324041010       -3.4085626510
 C         7.0564775625        1.4426620461       -2.3132887788
 C         6.2785356295        0.1197955445       -1.8595806976
 C         4.8936341560       -0.0170168354       -2.7258083210
 C         3.9507524090        1.1630604392       -2.5386114115
 O         6.6862673096        2.4659509075       -1.8098504725
 O         4.5303336243       -0.9884731657       -3.3321029565
 C         7.1881786882       -1.0817626041       -2.1509563537
 C         6.0028589184        0.3491024567       -0.3151185746
 C         2.5699399233        0.8492202301       -3.0326661056
 C         1.7265145498        0.4407687616       -1.8391756842
 C         0.1578979069        0.1670423738       -2.0422561017
 C        -0.6993733930       -0.1620876414       -0.6611385220
 C        -0.5799519475        0.8272116052        0.5326733034
 C        -0.6104701914        1.5274460614       -2.4340786957
 C        -0.0630639226       -0.9768536696       -2.9978921271
 O         2.1327107654        0.2931250704       -0.7275921320
 O        -1.5086481315       -1.1061288670       -0.6895689666
 C         0.2570430440        0.1572840079        1.5641559047
 C         0.4195518575        0.8536623061        2.9097610234
 C         1.4400180772        0.1676038381        3.9482716825
 C         0.7804515614       -1.3250581896        4.1833977919
 C        -0.5098729086       -1.2954475913        5.1566121984
 O        -0.3274852907        1.7425835313        3.3300856158
 O         1.1790898941       -2.3191545130        3.5936693452
 C         2.8812040177        0.0932702000        3.3701390253
 C         1.4949242825        1.0404082343        5.1730858956
 C        -1.6440782277       -2.4268359120        4.9392417504
 C        -2.3608265509       -2.3827442193        3.6104891383
 C        -3.2493420536       -3.5756875832        3.2457324850
 C        -4.6902390833       -2.8838909711        3.1239179110
 C        -5.7707838481       -3.2033480699        4.1210177028
 C        -2.8072964906       -4.0670119357        1.7533089020
 C        -3.2906322818       -4.8584046801        4.0874361844
 O        -2.1528528159       -1.5484667849        2.7608261835
 O        -4.9317440177       -2.1116091248        2.1980114078
 C        -6.8618900190       -2.1978963344        3.9863489184
 C        -6.2642570591       -0.7696470548        4.4519803103
 C        -7.2243367058        0.3377350085        4.7857820590
 C        -7.0172991167        1.4791929760        3.7058145783
 C        -5.8065852121        2.2686573235        3.5438951833
 O        -5.0457821240       -0.6230774796        4.7076667516
 O        -7.9875538239        1.8151154638        3.0623635735
 C        -8.7115468640       -0.0877708470        4.7626835792
 C        -6.7378745967        0.8844228360        6.2015158155
 C        -5.5205620130        2.7233830691        2.1027052612
 C        -5.1630981433        1.5030806173        1.1129489628
 C        -5.9954565621        1.3882315412       -0.2334420550
 C        -5.2122432701        0.5505420107       -1.2838888626
 C        -5.7652259230       -0.8140515252       -1.9435458095
 C        -7.3352529014        0.6925215092        0.2427489556
 C        -6.3671199598        2.8517514267       -0.7288243026
 O        -4.1880961149        0.8005716958        1.4224031534
 O        -4.1814832248        0.9600732127       -1.6112959533
 C        -4.6786191976       -1.5413359432       -2.7999553744
 C        -4.1897576570       -2.9078679741       -2.3602123705
 C        -4.2421995626       -4.0746970448       -3.3699970415
 C        -3.2882222673       -3.7245511751       -4.6529132758
 C        -2.9672483591       -4.6993213460       -5.7939367793
 O        -3.8274332143       -2.9452596308       -1.1794356510
 O        -2.8736118496       -2.5834262650       -4.7836213944
 C        -3.7666407637       -5.3338755698       -2.5877910299
 C        -5.7170314866       -4.2230946401       -3.8707152160
 H         9.6444581724        6.9209273678       -6.1153301496
 H         8.3648468270        7.3240314281       -5.0079143059
 H        10.0007783521        7.8558513418       -4.5993105491
 H         9.0487696130        3.1716000464       -2.4563508292
 H         7.6451574002        3.5468683685       -3.5572617607
 H        11.7394783183        4.0894384161       -6.5414431759
 H        11.5295605106        5.7172155260       -6.1730743075
 H        10.2015885987        4.7727849818       -6.7909096142
 H        12.0948167484        3.0590053776       -4.1993252493
 H        12.5702830194        4.6867336719       -3.7566662558
 H        11.4016604224        3.8131794466       -2.7419578697
 H         7.8587668299        1.1540366761       -4.3680534421
 H         9.0942615573        0.9284081988       -3.0708192153
 H         3.9562823296        1.3430704695       -1.4746253688
 H         4.4662423797        2.0615351668       -2.9365184572
 H         6.7845676077       -2.0691696851       -2.0052938385
 H         8.1542416306       -1.0708278866       -1.6708860455
 H         7.4522993564       -1.0100482619       -3.1727356889
 H         5.3976741890       -0.4278583572        0.1542213001
 H         6.9061673619        0.5563946354        0.2803945770
 H         5.3602147482        1.2835566807       -0.2478237028
 H         2.7083931879        0.0742610147       -3.8048445247
 H         2.0571477812        1.7999783516       -3.3808490310
 H        -0.0570515998        1.7610324945        0.2802521654
 H        -1.5208184024        1.0687897325        0.8831021976
 H        -0.6267995856        1.7278511441       -3.4764254000
 H        -0.1319450865        2.3626685576       -1.9060384133
 H        -1.5740046174        1.4893003834       -2.1248788520
 H         0.6421089394       -1.7857029159       -2.8282937758
 H        -1.1228674787       -1.2974560414       -3.0052815953
 H         0.2728209127       -0.6022831857       -3.9798878903
 H        -0.2960991559       -0.7485302670        1.8606656014
 H         1.3051753340       -0.1152724496        1.1012778335
 H        -0.1122010855       -1.2970767140        6.1890118487
 H        -1.0320235372       -0.3625876987        4.9931799837
 H         3.0559722217        0.9235026988        2.7158564652
 H         2.9178460523       -0.8783206003        2.8691073804
 H         3.6483666920        0.1057257887        4.0839326400
 H         0.5699804711        1.4847056767        5.4769958561
 H         1.8936127412        0.5348462746        6.0418735026
 H         1.9870700961        1.9687951452        4.9816824390
 H        -2.3628790169       -2.1682497827        5.6964947513
 H        -1.4664439523       -3.4409171964        5.2635149607
 H        -6.0306366214       -4.2620402477        4.0582932954
 H        -5.2228440678       -3.0325307235        5.1046692879
 H        -1.7341902993       -4.3920026120        1.7945119679
 H        -2.9246760919       -3.2193428818        1.0993093317
 H        -3.3181576784       -4.9325546092        1.4663644980
 H        -4.0679140179       -5.4865656976        3.7539178186
 H        -2.2857780526       -5.3922299922        4.1134703681
 H        -3.5881097990       -4.6567370452        5.1448075021
 H        -7.1290795899       -2.0664605451        2.8903896855
 H        -7.7227136369       -2.5042861663        4.5695979106
 H        -6.0416886742        3.1946249883        4.1429011189
 H        -4.9623930040        1.8092147904        4.0242737935
 H        -8.8076422734       -0.7287881530        3.9150120458
 H        -9.3019271493        0.8629048683        4.6294849306
 H        -9.0089056227       -0.6961458132        5.6528126167
 H        -7.3795650756        1.6415308820        6.5786657965
 H        -6.5586489713        0.0787848448        6.9502667479
 H        -5.8200336807        1.3907682814        5.9827756596
 H        -4.6436686323        3.3826883460        2.1214942548
 H        -6.4202763161        3.2974030285        1.8872075990
 H        -6.0735364634       -1.4954894434       -1.1648193394
 H        -6.6633291398       -0.6181791467       -2.4551869754
 H        -8.1298784907        0.5949293729       -0.4257068618
 H        -7.7279726712        1.2963630412        1.0295644679
 H        -7.2026831170       -0.3331779366        0.6409407105
 H        -5.5517115688        3.2293421197       -1.3780539549
 H        -7.2576949903        2.7603232362       -1.3365262716
 H        -6.4515803736        3.5768396553        0.1155498066
 H        -4.9387219311       -1.4304526225       -3.8763595492
 H        -3.6868854880       -1.0593131375       -2.7821386906
 H        -3.0680215653       -4.1247521231       -6.7028140587
 H        -1.9710479219       -5.1565012720       -5.6536176749
 H        -3.6715654835       -5.4869177807       -5.7089172355
 H        -2.8824083693       -5.1275543944       -1.9773880139
 H        -3.5698961587       -6.1082259467       -3.2212421637
 H        -4.5357017983       -5.5075924262       -1.8748227791
 H        -6.1223346071       -3.5660309514       -4.6101377049
 H        -5.8453873153       -5.2097145682       -4.2937768790
 H        -6.4549411130       -4.2661139405       -3.0442441265
 Na       -3.3509084021       -1.1460232664        0.7194051016
