155

 C         9.2818795175        6.9458400968       -4.9404247298
 C         9.8350299854        5.8943366530       -3.9966511852
 C        10.4575087953        4.5862535091       -4.7657396550
 C         9.2122640800        3.4850624814       -4.8893604404
 C         8.6010013514        3.1303953505       -3.5144992801
 C        11.0956560340        4.8667982975       -6.1027510925
 C        11.3639904813        4.0687027195       -3.6245451983
 O         9.7862194196        6.0037853442       -2.7859729769
 O         9.0605473712        2.9183838653       -5.9212406767
 C         8.1738117186        1.6646827104       -3.3062903573
 C         6.9347205681        1.6089511378       -2.3537617090
 C         6.4448645759        0.2736358692       -1.8581928557
 C         5.0414814636        0.0309022945       -2.4716678285
 C         4.0226238802        1.2608702162       -2.5385171532
 O         6.3939429260        2.6342294242       -1.9133055599
 O         4.8314478576       -1.0286407559       -3.0701362989
 C         7.2654730843       -0.9578189205       -2.1693114997
 C         6.2892108420        0.1950556821       -0.2808900754
 C         2.4982504485        0.9501709038       -2.9151808227
 C         1.5879198277        0.4361734458       -1.7527539896
 C         0.0063254361        0.3651333933       -2.0811323247
 C        -0.7266738792        0.0046270174       -0.7242633354
 C        -0.4298728362        0.8814317869        0.5156919180
 C        -0.6547998832        1.5592631295       -2.7331687113
 C        -0.1550868271       -0.7990943607       -3.1248681155
 O         1.9748578582        0.1086605946       -0.6053654350
 O        -1.5565027694       -0.8888406983       -0.7145109007
 C         0.2682958248        0.0385149161        1.7192398729
 C         0.3696909311        0.8876045863        3.0613219939
 C         1.3279568345        0.1895295163        4.0559064580
 C         0.6782817507       -1.1867241417        4.2467133850
 C        -0.5903583250       -1.2359958844        5.0771721546
 O        -0.1810019116        1.9010527253        3.3157569361
 O         1.0685871490       -2.1623129545        3.6653903625
 C         2.7618743405       -0.0451091478        3.5042956108
 C         1.4058427873        0.7748844321        5.5126524611
 C        -1.3879206091       -2.5174697620        4.8884614092
 C        -2.1189554103       -2.5134976486        3.5419850595
 C        -3.2253153502       -3.6229820682        3.2175416142
 C        -4.6090099190       -2.8813095206        3.0129752696
 C        -5.8169517122       -3.1645394847        4.0142015667
 C        -2.8790466647       -4.3293135723        1.7762050781
 C        -3.2334459613       -4.7273177442        4.3904491143
 O        -2.0488437666       -1.5412443908        2.7890669242
 O        -4.8435267435       -2.1651684101        2.0770852604
 C        -6.9263801496       -2.0488840414        4.1252955561
 C        -6.3193860640       -0.7414829631        4.6919412152
 C        -7.3430656171        0.5278616301        4.9790584986
 C        -7.1148393185        1.4893198854        3.8139845912
 C        -5.6899959092        2.0364633261        3.4934232507
 O        -5.1597255868       -0.5617169761        4.9074591872
 O        -7.9383771163        1.7750828945        2.9690491737
 C        -8.8748932681        0.1367033992        4.9930605041
 C        -7.1376190979        1.1342131078        6.4390987235
 C        -5.5196440006        2.4501315189        2.0666441876
 C        -5.1545294653        1.4109154138        1.0158736871
 C        -6.0417640407        1.2675810987       -0.3425212411
 C        -5.1704418763        0.3745131080       -1.2533484775
 C        -5.5714417572       -1.0532649549       -1.6309832382
 C        -7.3868837221        0.6341789194       -0.0559997410
 C        -6.2116110798        2.6340674864       -1.0990409197
 O        -4.0984085366        0.7867332505        1.0987180775
 O        -4.2559250662        1.0472951698       -1.8240846508
 C        -4.7552078428       -1.6348532777       -2.8216420295
 C        -4.2040513052       -2.9309718137       -2.4084817665
 C        -4.1480533646       -4.1066623905       -3.4921626463
 C        -3.2150413656       -3.5412605747       -4.6475996350
 C        -2.6819905679       -4.6878229219       -5.5568246273
 O        -3.9256232697       -3.1164164185       -1.2142710216
 O        -3.0818651805       -2.3791021816       -4.8522184754
 C        -3.7350396250       -5.4240346571       -2.9554198098
 C        -5.5495493789       -4.2684396925       -4.2606599406
 H         9.3474176089        6.5553106910       -5.9006902245
 H         8.2346086532        7.0626432070       -4.7441932191
 H         9.7260952459        7.9658547425       -4.7468375284
 H         9.3521061583        3.2143916741       -2.7559234682
 H         7.7313440702        3.8286786279       -3.2871353787
 H        11.6473194327        3.9699854215       -6.3565998532
 H        11.8433214893        5.6259933162       -6.2265677992
 H        10.3798904103        4.9996641165       -6.9130461853
 H        11.5764682142        2.9931614392       -3.7863993388
 H        12.2904157153        4.6112051527       -3.6093708332
 H        10.8724198605        4.1339388754       -2.6528256173
 H         7.8753216885        1.0142510904       -4.1812196146
 H         8.9848802394        1.1023232472       -2.8834051830
 H         4.0796784096        1.8356323221       -1.5694931271
 H         4.4081630844        2.0189847701       -3.2702304629
 H         6.7804024547       -1.8185453943       -1.7062924581
 H         8.2770790176       -0.9594543533       -1.6657817264
 H         7.4970568385       -1.2764001471       -3.2484150352
 H         5.8278091162       -0.7436116041        0.0046459690
 H         7.2866222070        0.1160962242        0.1223299988
 H         5.8103483508        0.9993550346        0.2237971769
 H         2.4946899802        0.2744651166       -3.7992086877
 H         2.1807973415        1.9416290346       -3.1908888404
 H         0.1532387138        1.7778608810        0.3022510852
 H        -1.4321339746        1.1951944694        1.0188276414
 H        -0.0548787300        1.7782139934       -3.6568620807
 H        -0.7008641563        2.4513183746       -2.1628684659
 H        -1.7669747606        1.3015931851       -2.9530104214
 H         0.3633428948       -1.6643633419       -2.6879213404
 H        -1.1934005751       -1.0206265704       -3.1572541765
 H         0.3127914785       -0.6931734079       -4.0754439197
 H        -0.3505317144       -0.8580457510        1.8454027566
 H         1.2366827286       -0.1970775110        1.4899065397
 H        -0.4631671928       -1.1046634457        6.1522963133
 H        -1.1329736507       -0.3643214956        4.6843294684
 H         3.3065601013        0.9413645835        3.6355421750
 H         2.7956350987       -0.5177459444        2.5391266721
 H         3.2365498522       -0.8317054335        4.1872673752
 H         0.4287497927        1.2043457765        5.8008957823
 H         1.7048881852        0.0325815280        6.2388485727
 H         1.9694897925        1.6935762374        5.5680959934
 H        -1.9765444599       -2.6625469460        5.8346933054
 H        -0.6232504161       -3.3684343899        4.9451488346
 H        -6.2612244005       -4.0576790304        3.5855659684
 H        -5.4774566739       -3.4362715920        4.9642384908
 H        -1.9233507984       -4.8109803284        1.7584132344
 H        -2.9762848236       -3.5590091306        1.0220826182
 H        -3.6362794882       -5.1567714105        1.6306552324
 H        -4.1432569683       -5.3968152380        4.3241234031
 H        -2.3183847692       -5.2724253963        4.3929437129
 H        -3.4497659950       -4.3069330110        5.3620008611
 H        -7.5640774298       -1.9239710874        3.2691674075
 H        -7.5526198659       -2.3959781464        4.9898710238
 H        -5.4180727217        2.8780382580        4.1266291228
 H        -4.9996914054        1.1864467760        3.7114666881
 H        -9.1853935056       -0.2298754410        4.0038281129
 H        -9.4641403099        0.9277590231        5.3685287382
 H        -8.9177797871       -0.7038845123        5.6390371394
 H        -7.8300566256        1.9617307965        6.5838790008
 H        -7.3862870063        0.3437849804        7.0917290389
 H        -6.1124900478        1.4274201673        6.6952293198
 H        -4.6620168116        3.1067448539        2.0447326633
 H        -6.3245123740        3.1108161660        1.7843605331
 H        -5.6754901318       -1.7375847953       -0.7475999721
 H        -6.6754213325       -0.9454277776       -1.9396428674
 H        -8.0194498786        0.6037556863       -0.9840710240
 H        -8.0488177557        1.1258003426        0.6733903660
 H        -7.3006395752       -0.4183374391        0.1634442930
 H        -5.2336136167        3.0008273632       -1.3657102824
 H        -6.7260406226        2.4391235301       -2.0512919862
 H        -6.6627090998        3.3487366438       -0.4313566093
 H        -5.4401434893       -1.6685908238       -3.6257225909
 H        -3.9053477456       -1.0775623652       -3.2434706689
 H        -1.8677938458       -4.1803589734       -6.0852550331
 H        -2.3451942939       -5.5006614035       -4.9566105757
 H        -3.4875243073       -5.1519671209       -6.1679603753
 H        -2.9610762809       -5.2981833372       -2.2223781355
 H        -3.3180042499       -6.0663742481       -3.8037527301
 H        -4.5949492171       -5.8603106008       -2.4301739160
 H        -5.9911812553       -3.3037677387       -4.6136381704
 H        -5.6217625187       -4.9182482093       -5.1536034469
 H        -6.2964035206       -4.6895173394       -3.6077221583
 Na       -3.1767056440       -1.4057320749        0.5936284242
