155

 C         8.7404348453        6.8784374967       -4.6477991719
 C         9.9329623963        6.0804634443       -3.9182279021
 C        10.4581122377        4.7148094579       -4.6859742002
 C         9.3857887025        3.5273738894       -4.8141405132
 C         8.3702570835        3.3845765964       -3.5652752873
 C        11.2495043074        5.0419490180       -6.0901669439
 C        11.5727145941        4.2511751197       -3.7717369045
 O        10.3070943287        6.4547425771       -2.8301111811
 O         9.3446569267        2.7911041382       -5.7318622091
 C         7.8191718627        2.0300565158       -3.4975987277
 C         6.9550211671        1.9841361014       -2.2089811448
 C         6.4491500627        0.5502124242       -1.8064295363
 C         4.9956039810        0.1699665585       -2.3237529819
 C         3.9959417429        1.3172077100       -2.6239488903
 O         6.4384907162        2.9089937373       -1.5914078422
 O         4.7458067524       -1.0094650796       -2.4908379028
 C         7.4872820834       -0.4260591543       -2.3902716142
 C         6.6082676417        0.4012197846       -0.2228278989
 C         2.5652129665        0.9029039076       -2.9478528124
 C         1.6559584877        0.3877903573       -1.7555088772
 C         0.0336999666        0.5174063349       -2.0431168297
 C        -0.7116761857        0.2067970423       -0.7309733240
 C        -0.2979447597        0.9479502473        0.5100635360
 C        -0.1746047562        2.0205723842       -2.3161626296
 C        -0.4292167291       -0.3467220738       -3.1485972584
 O         2.0782245878       -0.2151488337       -0.7589519134
 O        -1.5962656633       -0.5880358430       -0.7716042671
 C         0.2859706725        0.0882569912        1.6117875934
 C         0.4548853769        0.9968837308        2.8945104786
 C         1.0641846114        0.2504021012        4.2065747640
 C         0.4519307262       -1.1476957107        4.2666345105
 C        -1.0219754718       -1.2241934473        4.7353868267
 O         0.3670653493        2.1682697633        2.9695822994
 O         0.9303320938       -2.1481265374        3.8030508537
 C         2.5918050187        0.1833618152        3.8075979788
 C         0.8918835811        1.0065765313        5.5432807456
 C        -1.6188625493       -2.6466301055        4.7956719486
 C        -2.4176147583       -2.9561460120        3.5045964975
 C        -3.6611716011       -4.0630732855        3.4629669961
 C        -4.8793681534       -3.1910707039        3.2541765830
 C        -6.0647510925       -3.0437245798        4.2534171550
 C        -3.4137067377       -5.0379040653        2.1514349564
 C        -3.5724506137       -4.9794842739        4.6546170156
 O        -2.2062162462       -2.3025653052        2.4985897993
 O        -5.0431027663       -2.6453531082        2.1764977424
 C        -6.8890911402       -1.7359867914        4.1409450671
 C        -6.7417772551       -0.7278108934        5.2563950301
 C        -7.4106176434        0.6508379058        5.0253955913
 C        -7.0845759516        1.2442741871        3.5886022705
 C        -5.6082532225        1.5171149208        3.4309208515
 O        -5.9689714320       -0.8682900240        6.1444762596
 O        -7.9568181535        1.4149729271        2.7535588032
 C        -8.8701589766        0.5742729839        5.2851945049
 C        -6.8255115448        1.7286020982        6.0769225901
 C        -5.3830194957        2.0896370839        1.8755312214
 C        -5.0725886379        1.0603476014        0.7567679167
 C        -5.8507302195        1.2591020082       -0.5707416158
 C        -5.2955696264        0.1893102208       -1.6701343549
 C        -5.6672016318       -1.2630814066       -1.8205440759
 C        -7.3587991297        0.8963653829       -0.4864040901
 C        -5.8224944608        2.6947644037       -1.1207042427
 O        -4.2610621843        0.1865859106        0.8592003349
 O        -4.4771354282        0.5710347858       -2.5300867524
 C        -4.8369676967       -1.8778410107       -2.9488254466
 C        -4.0935427399       -3.1453562671       -2.5246563312
 C        -3.8637581668       -4.1533282883       -3.6898043737
 C        -2.8123018980       -3.3385794492       -4.6616092113
 C        -1.5260459133       -4.0500860066       -4.8738023411
 O        -3.6351055182       -3.3630588636       -1.4399260465
 O        -3.0628032396       -2.2433861346       -5.1468813685
 C        -3.3852951476       -5.5474419242       -3.0388899775
 C        -5.1066044403       -4.4205160298       -4.5646641987
 H         7.7705484929        6.2804219262       -4.8049999557
 H         8.6342286526        7.8644119508       -4.1864762343
 H         9.1441059882        7.0340127164       -5.6070631883
 H         8.7900469155        3.7125893744       -2.6175989785
 H         7.6556956607        4.2388352563       -3.7527475753
 H        12.0316073899        4.3229694078       -6.4257282364
 H        11.7102931950        5.9985864276       -6.0056090317
 H        10.6649760561        5.1901538896       -7.0133547956
 H        12.2609541261        3.5304366422       -4.2144503013
 H        12.0787553264        5.1247101637       -3.3290531306
 H        11.1086009283        3.7507283325       -2.9264358063
 H         7.2071463082        1.7448662323       -4.3257853750
 H         8.5690633872        1.2254374567       -3.5439632759
 H         3.8720093280        2.0090735515       -1.8077918354
 H         4.4472198526        1.9667034783       -3.3333159982
 H         7.3887666067       -1.5561106299       -2.1843470688
 H         8.4697940400       -0.2320040976       -2.0193932483
 H         7.4084997114       -0.4235530202       -3.4797688312
 H         6.2829248414       -0.5763675919        0.0924394116
 H         7.5763624837        0.6138014997        0.2533571930
 H         5.9780188567        1.0855997538        0.2330068266
 H         2.7481361909        0.1075534009       -3.5930804026
 H         2.0440612908        1.6167282729       -3.6183550770
 H         0.4563486173        1.6664057895        0.1824891687
 H        -1.1756467277        1.4784394753        0.9306583417
 H        -0.1643517297        2.2734768664       -3.4049427594
 H         0.6553043517        2.6460856168       -1.8618003024
 H        -1.1613793762        2.4309471300       -1.9043043791
 H        -0.1859560583       -1.3465181665       -2.9661169529
 H        -1.5100546363       -0.3175462830       -3.3657001818
 H         0.0468019473        0.0638239416       -4.0322354948
 H        -0.4481563197       -0.7137904488        1.8042208770
 H         1.1519097130       -0.3508292129        1.0745235925
 H        -0.9089677261       -0.7334768478        5.7086610141
 H        -1.6684066146       -0.5239873634        4.1508662717
 H         2.6710215809        0.9119619938        3.0115329985
 H         2.7026114264       -0.8169597355        3.2658609541
 H         3.2801422416        0.3386993481        4.6674187908
 H        -0.1270256634        1.2902187870        5.6489176497
 H         1.1151510085        0.3405066252        6.3924954255
 H         1.7111721395        1.7748924269        5.6298621260
 H        -2.2833441934       -2.6899882826        5.7187900128
 H        -0.7081248438       -3.2589103641        4.9331504866
 H        -6.6902299255       -3.9024088022        3.9748059749
 H        -5.7518465990       -3.2346062539        5.3021180417
 H        -2.4822862182       -5.5313235610        2.3395320294
 H        -3.2834637481       -4.5243316730        1.1785179709
 H        -4.3023055943       -5.6799419118        2.0809459993
 H        -4.3484080444       -5.7586820612        4.6418228012
 H        -2.6427666261       -5.4532269126        4.7544834059
 H        -3.6932498674       -4.2832647054        5.5194834736
 H        -6.8312846824       -1.2278838546        3.1822574137
 H        -7.8825542179       -2.0326821768        4.1522328547
 H        -5.3678758926        2.2690406220        4.1697906024
 H        -5.1200194069        0.5928264951        3.6524510678
 H        -9.3094174837       -0.1623938791        4.6140726904
 H        -9.2860094798        1.4609175300        4.9168392667
 H        -9.1117797859        0.4619245341        6.3115573997
 H        -7.4946927540        2.6330197317        6.0044781997
 H        -6.8571014135        1.3094041510        7.0633465175
 H        -5.8117902164        1.9998193233        5.9224948383
 H        -4.6209990171        2.9655027078        1.8622798311
 H        -6.3640016606        2.6649521502        1.6188702415
 H        -5.4387075094       -1.8131870638       -0.8775334503
 H        -6.7232123340       -1.4292671645       -1.9085545182
 H        -7.9104617835        1.1253750006       -1.4483228889
 H        -7.8073939027        1.5773700154        0.2800705149
 H        -7.6255479277       -0.0328147400       -0.0454801886
 H        -6.3790980157        3.3506607559       -0.4562928986
 H        -4.7887712483        3.0324389086       -1.1608714702
 H        -6.1858370781        2.6969530593       -2.1063893974
 H        -5.5547581180       -1.9535102715       -3.8232886443
 H        -4.0758209379       -1.1787975399       -3.3270172815
 H        -0.9680061707       -3.4880965655       -5.6367740885
 H        -0.8303337804       -4.1019256184       -4.0155295552
 H        -1.8404024036       -5.0488167265       -5.2394873793
 H        -2.9807399594       -5.1947900891       -2.0653254709
 H        -2.6823270382       -6.2065905099       -3.5669862045
 H        -4.2496957392       -6.2337749690       -2.9753058580
 H        -5.4916431857       -3.5949959710       -5.1480864838
 H        -4.7880771693       -5.1749443023       -5.2762509759
 H        -5.9992234834       -4.8104718665       -3.9866720925
 Na       -3.2499230705       -1.8225945852        0.5915160799
