155

 C         8.4309780104        6.8709858830       -5.3311447195
 C         9.3472618630        6.3654695148       -4.1706769530
 C        10.2104373873        5.1058464047       -4.4357924898
 C         9.0965971604        4.0329563172       -3.8719671664
 C         9.0725721542        3.6823258725       -2.4273846959
 C        10.3858897783        4.7658934471       -5.9783155864
 C        11.5825689613        5.2840688388       -3.6811841879
 O         9.3846957451        6.8014841752       -3.0635263946
 O         8.2450486471        3.6443779997       -4.6786587339
 C         8.6110177712        2.2302920893       -2.2983430007
 C         7.0530100272        2.2163172136       -2.1311678355
 C         6.3816083006        0.8710760505       -2.2157050396
 C         4.7925559092        1.1056698567       -2.3813376953
 C         3.8677923403        2.0947681167       -1.6461541721
 O         6.4612914268        3.2614568973       -1.9402890105
 O         4.2660375770        0.3333968736       -3.1312212049
 C         6.9243768666       -0.1699796416       -3.2744949229
 C         6.4521292258        0.3393865145       -0.7319685399
 C         2.4227599473        2.0167247018       -2.0547667576
 C         1.4242557709        1.6951799619       -1.0020101917
 C        -0.0034040190        1.3395787015       -1.5869176028
 C        -0.7414807536        0.4783717968       -0.3879255297
 C        -0.8874523975        1.0107327565        1.0275428030
 C        -0.8859641894        2.5014697607       -1.8942161137
 C        -0.0850810980        0.3565443925       -2.8139680603
 O         1.6662107151        1.7345691433        0.1818947718
 O        -1.3098943502       -0.5105011648       -0.7593557881
 C        -0.2841709700        0.1037458957        2.0174404959
 C        -0.4380545330        0.6210960978        3.4668860554
 C         0.2192235130       -0.2294223384        4.6774053485
 C        -0.6270555209       -1.5565592700        4.6417838226
 C        -2.0255292028       -1.5460892426        5.2497406978
 O        -1.0937437844        1.6064485494        3.7096411254
 O        -0.1448450206       -2.6146442300        4.2700382452
 C         1.7604171419       -0.6649342939        4.4877912387
 C         0.0181775737        0.6653609605        5.9717773790
 C        -2.7478234212       -2.8651872490        4.9727537901
 C        -3.0117442994       -3.1030728674        3.4963373729
 C        -3.8019417404       -4.3345950213        3.0356196278
 C        -5.0946741174       -3.7612742719        2.3163845003
 C        -6.5663027327       -3.8702618453        2.9723439306
 C        -2.9290608871       -5.0844537448        1.9957596946
 C        -4.2755941527       -5.3381636595        4.0842599303
 O        -2.7863862147       -2.2542895769        2.6810737547
 O        -5.0253368030       -3.2399568911        1.2324814945
 C        -7.2481216574       -2.4780789232        2.8498973682
 C        -6.4374810628       -1.4196542953        3.6258285692
 C        -6.8910663910        0.2165225945        3.9074914403
 C        -6.9525043235        1.1575009458        2.7274222444
 C        -5.8298121065        2.1327567909        2.3884480793
 O        -5.3511939827       -1.6803231984        4.1276196647
 O        -8.0126300707        1.2534786309        2.1387677150
 C        -8.2339078726        0.0616332108        4.4690565311
 C        -5.9198785087        0.9243782503        4.9276413318
 C        -5.7119030514        2.4400445307        0.8580874677
 C        -5.1818923098        1.2232518860        0.0856092186
 C        -5.5665473488        1.0580746574       -1.4191671849
 C        -4.4926894341        0.1956380866       -2.2314817458
 C        -4.6221050106       -1.3481334622       -2.2469355941
 C        -7.0867049798        0.6565347238       -1.4205852824
 C        -5.4057213604        2.4935307716       -2.0615346995
 O        -4.3395139780        0.5269873002        0.5756306383
 O        -3.5635654415        0.7414732471       -2.7189810869
 C        -3.4113936725       -2.0586760853       -2.7832519513
 C        -2.9852754912       -3.2327405707       -1.9349414570
 C        -2.6413027152       -4.5205441178       -2.6908045190
 C        -1.1866691271       -4.3721330843       -3.3010598524
 C        -0.6499730840       -5.6331424249       -3.8698089981
 O        -2.7238505325       -3.2254543131       -0.7275779323
 O        -0.5171892265       -3.3209909198       -3.1798133026
 C        -2.4438765626       -5.6784655620       -1.6601512642
 C        -3.8433852889       -4.8713905366       -3.7578115861
 H         7.6886017851        7.4830163913       -4.9574280484
 H         9.0542835617        7.4059233549       -6.0407639140
 H         7.9808094859        5.9322282001       -5.7981876630
 H         9.9831739717        3.7680967246       -1.8282972261
 H         8.2415427872        4.3608458483       -1.9965492175
 H        11.3138626590        4.1460139550       -6.2072959398
 H        10.5677204295        5.6681878290       -6.5566312357
 H         9.4379732488        4.2538479268       -6.4064300562
 H        11.8653948887        4.2865240490       -3.3641601677
 H        12.3567245137        5.6492177054       -4.3621675226
 H        11.5055229732        5.9272479666       -2.8352460274
 H         8.9193773027        1.6163107344       -3.1497059010
 H         9.0817488751        1.6992483652       -1.4869047279
 H         3.8780726552        2.0774580275       -0.5362457819
 H         4.2771345153        3.1375061821       -1.6915632924
 H         6.3638375937       -1.0211518166       -3.1987757074
 H         7.9536617922       -0.2808331567       -3.0566848156
 H         6.8219522695        0.2542940250       -4.2855122010
 H         6.2883290976       -0.7290319738       -0.8089308018
 H         7.4847512073        0.4642564838       -0.3463849964
 H         5.7808614763        0.7399410441       -0.0522864262
 H         2.3880748495        1.2699452548       -2.9440135736
 H         2.1098037264        2.9835993063       -2.4906001828
 H        -0.3573951356        1.9419884765        1.0427060089
 H        -1.9153279297        1.2142520578        1.3383867765
 H        -1.6411410659        2.1538171756       -2.5708221736
 H        -0.2681907951        3.2545817430       -2.3892440801
 H        -1.3982179546        2.9237284171       -1.0636522867
 H         0.3560124484       -0.5933422443       -2.5773019953
 H        -1.1528160982        0.1865077295       -3.0074871621
 H         0.3541744963        0.6814225867       -3.7497647229
 H        -0.6954145778       -0.8710545085        1.8794637122
 H         0.7797420813        0.0642731202        1.7602587977
 H        -2.0810347353       -1.3776665698        6.2762848652
 H        -2.4690431110       -0.7415789303        4.7354056459
 H         1.9166190317       -1.6835496602        4.8695224887
 H         2.5115197892       -0.0476586806        4.7884754644
 H         2.0502414484       -0.8104527446        3.4811334891
 H        -0.5581481023        1.5860273851        5.8208158141
 H        -0.3257564349        0.0007851533        6.7916693644
 H         1.0466870600        1.0745925715        6.2318632855
 H        -3.7371999176       -3.0873966895        5.4999947474
 H        -2.0506745038       -3.6281612426        5.3475914095
 H        -7.1615813722       -4.6351057036        2.4663393265
 H        -6.4706941138       -4.1806678379        4.0566412959
 H        -2.0649266333       -5.4924809332        2.4341355826
 H        -2.5482824186       -4.4497830681        1.2158838222
 H        -3.4590936220       -5.9104146132        1.4430521455
 H        -5.0644479012       -5.9797479980        3.6170538603
 H        -3.4699915796       -5.9135378388        4.3924733762
 H        -4.7603710930       -4.8165525523        4.9412453403
 H        -7.1571522734       -2.1642572653        1.7887303172
 H        -8.2726599634       -2.4593796936        3.2911456573
 H        -6.0826698714        3.1050061053        2.9042921638
 H        -4.9088600905        1.7957298702        2.8454632222
 H        -8.8590416391       -0.6946454361        3.8915094548
 H        -8.8333902238        0.9257832903        4.5102797278
 H        -8.2147496739       -0.3876348617        5.4382890781
 H        -6.1518898957        2.0302538018        4.8176764446
 H        -6.2218055986        0.6115128920        5.9040040248
 H        -4.8692633547        0.7551166701        4.8968264054
 H        -5.0050208759        3.1811564390        0.6088779716
 H        -6.6537796810        2.7581213965        0.5109990752
 H        -4.8836263515       -1.6538723059       -1.2482397904
 H        -5.5145255535       -1.6893527404       -2.8794419516
 H        -7.4641038161        0.5946479873       -2.4666751772
 H        -7.6165801409        1.5191363338       -1.0128713335
 H        -7.2596116787       -0.2562534070       -0.8581965764
 H        -5.3542253765        2.4352162938       -3.1381570837
 H        -6.1425366539        3.2459235661       -1.7199348945
 H        -4.4324446457        2.8418544762       -1.7913795157
 H        -3.3093423195       -2.1202235932       -3.8180348800
 H        -2.6402140105       -1.3205206456       -2.4897750153
 H        -0.4488087775       -6.4433790424       -3.1103261903
 H        -1.3120043485       -6.0890039272       -4.5897057422
 H         0.3584421623       -5.5604734731       -4.3048698284
 H        -1.5521711670       -5.4926139009       -1.0714446964
 H        -2.2898678487       -6.7006124932       -2.1745414749
 H        -3.2426289603       -5.7472642504       -0.9081855658
 H        -4.1079946537       -5.8626747282       -3.4438216340
 H        -4.6301691714       -4.1417602085       -3.6551343782
 H        -3.3804157902       -4.9640636288       -4.7513310713
 Na       -3.1139156970       -1.5142260902        0.6321006521
