155

 C         6.7769055929        5.1145123686       -4.5122888785
 C         8.0671659761        5.9188916505       -4.1938546812
 C         9.4643915843        5.2884488801       -4.4898340928
 C         9.3056780194        3.7702269644       -3.8562867063
 C         9.0966411484        3.8462298408       -2.3438272159
 C         9.8082662588        5.3081663487       -5.9844719091
 C        10.5022065972        6.0254595683       -3.6035877435
 O         8.0272694844        6.9578985777       -3.5340117349
 O         9.4222776467        2.8193421637       -4.5932843417
 C         8.3980390647        2.5816305676       -1.7947446900
 C         6.7948247239        2.9047520645       -1.5365218426
 C         5.7191459025        1.8911762151       -2.1440601527
 C         4.2978673920        2.2823121803       -1.6554357980
 C         4.1075434316        2.3525778148        0.0006973191
 O         6.4791846806        3.9049544640       -0.9863447775
 O         3.4269866942        2.5932399423       -2.4237480885
 C         5.6112879812        1.6060888870       -3.7283272167
 C         6.1223868463        0.5279669347       -1.4485494440
 C         2.6972049565        2.8053696637        0.2367875813
 C         1.7309808123        1.5944505682        0.4015877528
 C         0.3937833774        1.6388444807       -0.3009111688
 C        -0.5003468392        0.5677402624        0.4251151779
 C        -0.8608373151        0.7940363855        1.8173394136
 C        -0.2326322965        3.1147935833       -0.3467997133
 C         0.6588648227        1.1280365145       -1.8044162926
 O         2.0453569174        0.5871351058        1.0399656312
 O        -0.8017026042       -0.4867843688       -0.1500005736
 C        -0.1673302379       -0.0260974060        2.8151017665
 C        -0.4811209459        0.4865763241        4.1753821879
 C        -0.0557665776       -0.4186492727        5.4293130907
 C        -1.1110229367       -1.5416249210        5.5204895849
 C        -2.6156363977       -1.2406581989        5.5376019109
 O        -1.1460012567        1.4776441242        4.4480099695
 O        -0.7875397302       -2.6999489663        5.4780144315
 C         1.4192291616       -0.9764456278        5.1877130640
 C        -0.0053775141        0.3926641530        6.7851489934
 C        -3.3223258301       -2.4594726819        4.8856080381
 C        -3.0153013572       -2.8193749418        3.4112527425
 C        -3.6840939997       -4.1489198515        2.7259082893
 C        -4.9868741219       -3.4107134347        2.0916992063
 C        -6.2368764517       -3.1828133180        2.9628152357
 C        -2.7899199503       -4.8398301232        1.6298538816
 C        -3.9980468028       -5.1321085824        3.8332971589
 O        -2.1727598386       -2.1995813899        2.7543871639
 O        -4.9277969907       -2.7834572178        1.0609820415
 C        -7.1785299659       -2.1318237063        2.5402184974
 C        -6.9202423274       -0.8381469148        3.4780074519
 C        -7.7008043591        0.3784660179        2.9968289603
 C        -7.4244495144        0.6210983322        1.5406150820
 C        -6.1239091770        1.4496740847        1.2068155775
 O        -6.0563405712       -0.8607588945        4.3067448526
 O        -8.1645863105        0.1471978987        0.6533110412
 C        -9.2254767531        0.0589724813        3.2417607950
 C        -7.4168797360        1.5941930991        3.9581896258
 C        -5.8264283215        1.6541976531       -0.3074310713
 C        -5.1048257216        0.3270684146       -0.9057196696
 C        -5.2454412399       -0.0688290573       -2.3866882121
 C        -3.7918042654       -0.3077023326       -2.9573537221
 C        -3.4212358670       -1.6207937281       -3.6588431145
 C        -6.1900075880       -1.3814590170       -2.5353727779
 C        -5.9180007149        1.0397228284       -3.2163157927
 O        -4.4015767377       -0.3377259726       -0.1157305435
 O        -2.9978277950        0.5590274074       -2.8229754821
 C        -1.9577884038       -1.9203727497       -3.3908699413
 C        -1.9036158681       -3.2290899882       -2.5391569012
 C        -1.5906203881       -4.7052708825       -3.0462441277
 C        -0.4367147904       -4.6752422900       -4.0157332229
 C        -0.0465308670       -5.9888114536       -4.6117865020
 O        -2.3294281343       -3.2316870065       -1.3982990489
 O         0.2720534010       -3.6737389498       -4.0698060255
 C        -1.2517436117       -5.5999374968       -1.8214561670
 C        -2.8407147888       -5.2972060124       -3.8138788887
 H         6.5166518038        4.3592116245       -3.7039469156
 H         5.8605880889        5.7487397877       -4.5227637701
 H         6.9232593382        4.5494666357       -5.3620630567
 H        10.0780960527        4.0422427803       -1.8520503196
 H         8.5426344452        4.7594720112       -2.2857042089
 H        10.8783128560        4.9960721153       -6.0769638342
 H         9.5853775544        6.3298254838       -6.3294123679
 H         9.1670371635        4.5174142688       -6.4064474477
 H        11.0939361914        6.6201593637       -4.2875672140
 H        10.1487781485        6.6586715240       -2.7807355354
 H        11.2299610698        5.3088367465       -3.2717348485
 H         8.5284892375        1.7733502454       -2.5283267011
 H         8.8467554000        2.3638580254       -0.8134683877
 H         4.2717112066        1.4049541345        0.3733229239
 H         4.7477710881        3.2198196014        0.3093776245
 H         5.1081585091        0.6121662972       -3.7122458831
 H         6.6164148122        1.5198820430       -4.2306435846
 H         5.0838789252        2.3906367704       -4.2339354362
 H         5.1871596372        0.0130094818       -1.3364617294
 H         6.7873782909       -0.1449858039       -2.0245832825
 H         6.4974345471        0.6633176654       -0.4852262030
 H         2.4509608568        3.5343658843       -0.5396831273
 H         2.5888767988        3.2885641086        1.1565458922
 H        -0.7307172786        1.8600358547        2.0316825611
 H        -1.9745286763        0.6277765931        1.8084402547
 H         0.3337359180        3.8914036630        0.1382113956
 H        -1.1813120200        3.0507464474        0.0995866877
 H        -0.4713166874        3.4105780702       -1.3518729045
 H         1.2188398650        0.1985940899       -1.7938512462
 H        -0.3167947093        1.0388262519       -2.2300710068
 H         1.3144526621        1.8492956057       -2.2562286576
 H        -0.4015228172       -1.1225686795        2.7211328399
 H         0.9333146403       -0.0498929345        2.6052481131
 H        -3.1496318076       -1.1418502790        6.5355547997
 H        -2.6807390354       -0.2543711746        4.9314181906
 H         1.7287244669       -1.3429827641        6.1573076239
 H         2.1789317369       -0.1303513837        4.9565514519
 H         1.4426966807       -1.7485874682        4.4054936265
 H        -0.9502248343        0.7924132413        7.2707392578
 H         0.5158459880       -0.1995261973        7.5672523378
 H         0.6430021724        1.2108631865        6.5455953502
 H        -4.3359913597       -2.3358805703        4.9813038035
 H        -2.9593076882       -3.3207603790        5.5182016949
 H        -6.7366838760       -4.1110208332        2.9104226859
 H        -5.7982247803       -2.9276760120        3.9168263623
 H        -1.8274517881       -4.9913644407        2.0270136331
 H        -2.7603903334       -4.1949287205        0.7582532861
 H        -3.0533390315       -5.8935311633        1.2976560439
 H        -4.6175037321       -6.0105816606        3.4295414899
 H        -3.1361765781       -5.5935400820        4.3753209495
 H        -4.5948177700       -4.6448659632        4.5512100802
 H        -7.0977791993       -1.9687991696        1.5069968596
 H        -8.2527733312       -2.4076812287        2.6403667645
 H        -6.1104862991        2.3899530751        1.7264376958
 H        -5.2601673730        0.8640170937        1.5653880156
 H        -9.5007044720       -0.7142196404        2.5178871186
 H        -9.7975632384        1.0054668944        3.2377270530
 H        -9.4201013356       -0.5450720051        4.1299921389
 H        -7.7849386124        2.5393826024        3.5482778897
 H        -7.9528530476        1.3381833522        4.8153783157
 H        -6.3703813656        1.7674176014        4.1132012711
 H        -5.3468599964        2.6464748505       -0.4566407946
 H        -6.7935002789        1.6259746145       -0.9205971806
 H        -4.0415298391       -2.3823946050       -3.3061692197
 H        -3.5885299030       -1.4806404808       -4.7193868225
 H        -6.2072162151       -1.7609423194       -3.5316983204
 H        -7.1262981975       -1.1854839036       -2.1035480263
 H        -5.8343977894       -2.2649256608       -1.9822547641
 H        -6.1108866572        0.7384945195       -4.2334540960
 H        -6.9455664257        1.1708610917       -2.8174949362
 H        -5.4858506322        2.0398844251       -3.2173346282
 H        -1.4402309073       -2.1988223466       -4.2814120288
 H        -1.3017371756       -1.1636950469       -2.8332620561
 H         0.8073456682       -6.5068756032       -4.2268680052
 H        -0.8128391891       -6.7749441785       -4.5750967132
 H         0.0937867644       -5.8264757507       -5.6782662608
 H        -0.3237891381       -5.2662396914       -1.3129034171
 H        -0.9026632050       -6.5416638238       -2.1049878409
 H        -2.0833572672       -5.5902858084       -1.1307539882
 H        -2.8890682271       -6.3798442264       -3.6191156294
 H        -3.8170091377       -5.0235516063       -3.4542556768
 H        -2.9353082380       -5.0479927265       -4.8570926439
 Na       -2.5917567039       -1.7793231339        0.4802134144
