155

 C         7.1114797104        5.8947295534       -5.6910706658
 C         7.9619890124        6.2877342898       -4.5779476197
 C         9.2469910805        5.4130317540       -4.3606605044
 C         8.7076095047        3.9723411678       -3.8073977736
 C         8.9854031584        3.8077970411       -2.2499556522
 C         9.8609389984        5.0865212907       -5.6890275624
 C        10.2181801481        6.1993411722       -3.4550701351
 O         7.7325119244        7.1917667457       -3.8041526392
 O         8.1392333693        3.2811781278       -4.5617282822
 C         8.3248301061        2.6002168781       -1.5702379516
 C         6.8129846611        2.8264150297       -1.3185910836
 C         5.7068318956        1.8081387683       -1.8063434620
 C         4.2513286889        2.1978668631       -1.5086120270
 C         3.9337701433        2.6540339185       -0.0944025466
 O         6.5067385417        3.8501142596       -0.6791420536
 O         3.4122510492        2.0416514560       -2.3869487436
 C         5.7729054514        1.8535399726       -3.3890449481
 C         6.0609511891        0.4446341636       -1.2396063076
 C         2.4794335233        2.8583027292        0.2877332510
 C         1.7780960706        1.5643582437        0.4443393557
 C         0.2848970995        1.3372127824       -0.1593549788
 C        -0.5649282098        0.3300653161        0.8109629602
 C        -0.8283499916        0.8650156484        2.2296444847
 C        -0.5673233979        2.6685394223       -0.1220448323
 C         0.5857295823        0.8062926122       -1.5748974406
 O         2.2826603858        0.5912189765        0.8865107574
 O        -0.9763639156       -0.7430138423        0.3940181205
 C         0.1602430521        0.2217638584        3.2279670705
 C        -0.1965300402        0.5355182256        4.6888878620
 C         0.1689881438       -0.3470507600        5.8447315544
 C        -0.7904778185       -1.6212062803        5.5062970731
 C        -2.3500214283       -1.5454743891        5.5458337160
 O        -0.8924147110        1.5103139998        4.8509481167
 O        -0.2643916026       -2.6727969898        5.1909963907
 C         1.5916609507       -0.7716859014        5.9630278019
 C        -0.3785227600        0.2553812500        7.0995067590
 C        -3.0252100018       -2.8135404168        5.1000242103
 C        -3.3941339676       -2.8667202966        3.6519964272
 C        -4.1779937742       -4.1157715375        2.9658205116
 C        -5.3759553147       -3.5787810333        2.0267275203
 C        -6.8521942744       -3.7208979140        2.5248573541
 C        -3.2294174317       -4.9014250557        2.0523515272
 C        -4.5524518738       -5.1207514494        4.0769407230
 O        -2.8991201173       -2.0448700472        2.9093241340
 O        -5.0914444954       -3.1958425212        0.9244723156
 C        -7.7465150374       -2.5287542105        2.0825977219
 C        -7.0954820242       -1.1915691187        2.5105527424
 C        -7.8791848364        0.1275780861        2.2489755373
 C        -7.2634056340        0.4670439208        0.8778028551
 C        -6.6355571589        1.8538407329        0.6365491356
 O        -5.9951314967       -1.1817391753        3.0032622961
 O        -7.5774993173       -0.3179607362       -0.0049373665
 C        -9.4898020134        0.0096937433        2.1574933907
 C        -7.5901715470        1.1610017454        3.3903845070
 C        -5.9138574165        1.9462872226       -0.7267471298
 C        -4.9378433083        0.7642184772       -0.8977404459
 C        -4.8856332121       -0.1662483261       -2.1856059440
 C        -3.3632502788       -0.5546674017       -2.5614435936
 C        -3.0609173389       -1.2213385396       -3.9961904526
 C        -5.7384851742       -1.3325693982       -2.0273392337
 C        -5.3420468036        0.6711454956       -3.3351555698
 O        -4.3026921282        0.3738434623        0.0819028395
 O        -2.4904491368       -0.0176573806       -1.9155612776
 C        -2.0186729858       -2.2490480214       -3.9155524341
 C        -1.8486496477       -3.0525362566       -2.5953285279
 C        -1.0436121476       -4.4103536614       -2.9341301279
 C         0.2284423245       -4.2244993259       -3.8712590957
 C         1.1857956969       -5.4229761258       -4.0901053635
 O        -2.4947006311       -2.8301445139       -1.5643818088
 O         0.4052984376       -3.2076772169       -4.4602807921
 C        -0.6016940653       -5.0971912609       -1.6275568396
 C        -2.0954620874       -5.3872651507       -3.6699268878
 H         7.6020952969        6.3372649497       -6.5236051078
 H         6.8728105982        4.8729666491       -5.6432081714
 H         6.0987119711        6.2973105369       -5.5634114092
 H        10.0547799076        3.6247536283       -2.2689744456
 H         8.7683083738        4.8101907762       -1.8898812313
 H        10.7683355589        4.5553716153       -5.5236583800
 H        10.1173317680        6.0613334623       -6.1645524984
 H         9.1512308959        4.5449231318       -6.2162408530
 H        10.1303301847        6.2025067468       -2.3669127361
 H        11.2383641528        5.9329711833       -3.6989654330
 H        10.1749442953        7.2633596809       -3.7382462886
 H         8.5526627876        1.6715286144       -2.0827569478
 H         8.8346867586        2.4352383392       -0.6074108541
 H         4.4031971662        1.8832799581        0.4812600593
 H         4.5259725777        3.6226914527        0.0462805593
 H         5.0294517638        1.2924979531       -4.0047712772
 H         6.7200700178        1.5951910879       -3.6722565177
 H         5.5583507123        2.8829009147       -3.7010957094
 H         5.2021878184       -0.1985398978       -1.1409433983
 H         6.7187877933       -0.1034259664       -1.9192841836
 H         6.5413983048        0.3567535660       -0.2188828910
 H         1.9066062793        3.4481535032       -0.5253458985
 H         2.3349511356        3.3788145585        1.2745368669
 H        -0.8236940591        1.8952488129        2.3023748717
 H        -1.8570151707        0.5132242884        2.5177880903
 H        -0.0587887674        3.5207289842        0.4480655637
 H        -1.5834869725        2.5340591138        0.2389998173
 H        -0.5559671166        2.9301621217       -1.2199284764
 H         1.4394368728        0.1064803664       -1.4168197823
 H        -0.2218064640        0.2554443307       -2.0060035163
 H         0.7784049185        1.7455162969       -2.0953393617
 H         0.1713796006       -0.8348425328        3.0588549733
 H         1.0956566280        0.6639476394        3.0249022682
 H        -2.5650388800       -1.3081851338        6.6004277381
 H        -2.6137974557       -0.6023236926        4.9922887415
 H         1.5427222635       -1.4660212607        6.7614628302
 H         2.1763025900        0.1259904576        6.2139917708
 H         1.9952876209       -1.3170636981        5.1424128301
 H        -1.4639128784        0.4270354313        7.0570011783
 H        -0.1516540173       -0.3449786211        7.9613927792
 H        -0.0338685844        1.2647242832        7.2360840957
 H        -3.8953873755       -3.0447217818        5.6807078504
 H        -2.1543411974       -3.5354128099        5.1956718743
 H        -7.3448166885       -4.6274253432        2.1702757238
 H        -6.8016863172       -3.9353241964        3.6265702851
 H        -2.3263555030       -4.9509598742        2.6549175508
 H        -2.8817368597       -4.3884105793        1.1606447157
 H        -3.6648955674       -5.8732073818        1.8327941108
 H        -5.1837703070       -5.9549540600        3.8907075869
 H        -3.6316389761       -5.5354010369        4.5127316404
 H        -5.0736458509       -4.6044803951        4.8651214132
 H        -7.8908527726       -2.7692832161        1.0330920743
 H        -8.7527025601       -2.5567523813        2.6479288573
 H        -7.4324586630        2.5700872698        0.5516194060
 H        -5.9520388074        2.1833241365        1.4025613076
 H        -9.8148288540       -0.0381391428        1.1573385988
 H       -10.0037084396        0.9278963610        2.5333820213
 H        -9.8504597024       -0.8464300827        2.7494827981
 H        -8.1214949198        2.0941669665        3.3009463884
 H        -7.9248966330        0.7270375313        4.3528862593
 H        -6.4875464010        1.2938299386        3.6335947321
 H        -5.5090377945        2.9931785102       -0.5721653533
 H        -6.7119797564        1.8252875756       -1.4954427694
 H        -3.9372502148       -1.6230662515       -4.4844283819
 H        -2.6765600330       -0.4003533960       -4.6921725852
 H        -5.8680261653       -1.9336235911       -2.9300181333
 H        -6.7859118343       -1.0844275963       -1.8948507214
 H        -5.3917671176       -1.9564737071       -1.1383364876
 H        -5.1936789399        0.1871528425       -4.2536801326
 H        -6.3982507873        0.8657553572       -3.1695723908
 H        -4.8257542125        1.6235819452       -3.4512945592
 H        -2.0933191965       -2.9672607790       -4.7051646185
 H        -1.0337000634       -1.7465168658       -4.1846165915
 H         0.6536585509       -6.3310139573       -4.4079839614
 H         2.0463655109       -5.2715707623       -4.7757059928
 H         1.7541353375       -5.7414820082       -3.2352722873
 H        -0.3565405680       -4.4048066704       -0.7872942900
 H         0.0649104487       -5.8815282008       -1.8562753529
 H        -1.4681304614       -5.6609423153       -1.2339965187
 H        -1.7250056056       -6.3821708214       -3.9272476122
 H        -3.0207685657       -5.4504971992       -3.1113040275
 H        -2.4005550073       -5.0902111865       -4.6269363738
 Na       -3.1063257007       -1.8436589584        0.4154984684
