155

 C         7.3946748886        6.7212615311       -6.3274757348
 C         8.1898303383        6.9947533679       -5.0654887733
 C         9.3230125877        6.0434085980       -4.4801626307
 C         8.8074953289        4.6416671585       -3.9110154782
 C         8.9109779939        4.2334281418       -2.3437572344
 C        10.2813985262        5.5618510557       -5.5804635145
 C        10.1032921949        6.9162415339       -3.4167345561
 O         7.8903790145        8.0053416850       -4.4847945579
 O         8.4786567030        3.7631877401       -4.7123593766
 C         8.3020134229        2.8974566017       -2.0346749032
 C         6.8268481431        3.1259662981       -1.7751849425
 C         5.8745878199        1.9344546670       -1.5423031700
 C         4.3674882885        2.5652937980       -1.3475529716
 C         4.0790666678        3.5622615638       -0.2159229814
 O         6.2989172318        4.2442965523       -1.9910117538
 O         3.5032246582        2.2842118348       -2.1593559836
 C         5.8475143423        1.0276212239       -2.7260345838
 C         6.2712614916        1.1534464738       -0.2442956568
 C         2.8045308452        3.2431270368        0.4771198497
 C         2.4594197748        1.7756543427        0.7444636957
 C         1.3151603405        0.9831821923        0.1054804637
 C         0.1512778860        0.4054323959        1.1259799234
 C         0.0405157141        0.9202924429        2.4871551487
 C         0.5037073554        1.5873197859       -1.0281836666
 C         1.8333001167       -0.4273990034       -0.4909950116
 O         3.1757616118        1.1239680399        1.5186975698
 O        -0.7788644080       -0.2258963826        0.6280600229
 C         0.0951726873       -0.2571307312        3.5410892152
 C        -0.7171446805        0.1350745532        4.8351844892
 C        -0.7764356518       -0.9441545472        6.0679366103
 C        -1.9798869256       -1.9759493114        5.4954129955
 C        -3.3054905520       -1.4485376224        4.9669783799
 O        -1.3287481351        1.2048521895        4.9191709433
 O        -1.8841804809       -3.1422343950        5.5869208396
 C         0.5140590888       -1.8308586180        6.1118521606
 C        -1.2938930856       -0.3266758695        7.3417662354
 C        -4.1827488580       -2.6117276144        4.4991200629
 C        -3.7237719997       -3.0500453959        3.1181105139
 C        -4.2644526399       -4.3374975090        2.3814559038
 C        -5.3680081801       -3.7195453475        1.4485394203
 C        -6.7623336970       -3.7654186213        1.7396717708
 C        -3.1571158790       -4.9061199645        1.4698971299
 C        -4.7977864729       -5.4715924561        3.3361004201
 O        -2.9504360125       -2.2825424060        2.5464978467
 O        -4.9518386914       -3.0625634458        0.4707631752
 C        -7.4505269689       -2.4935002901        1.3061142589
 C        -7.5993602147       -1.3951309589        2.4117721310
 C        -8.6578151636       -0.2355847325        2.1589217415
 C        -8.5186534901        0.3269844509        0.7006367042
 C        -7.2882738814        1.2491026452        0.5235768180
 O        -7.0523582137       -1.5460320516        3.4661814068
 O        -9.2932056158        0.0165393545       -0.1827589617
 C       -10.0428649570       -0.8561598235        2.2742400846
 C        -8.4431642661        0.8666886744        3.2316510478
 C        -6.7671494988        1.2517365890       -0.9548230051
 C        -5.5660064872        0.3059698064       -1.1228186756
 C        -5.0593298913       -0.2948615439       -2.6114002749
 C        -3.5941182171       -0.7957946251       -2.5562039311
 C        -3.0261180673       -2.0500317240       -3.2145227018
 C        -5.9919984781       -1.4307375324       -2.8883375511
 C        -5.0009313356        0.8629940468       -3.5989773833
 O        -4.9325225348        0.0101173322       -0.0968156476
 O        -2.7931674562        0.0313514902       -2.1113782884
 C        -1.4670798285       -2.1267955236       -3.0561571954
 C        -1.1563209707       -3.3136455823       -2.1204252780
 C         0.0489418721       -4.2889743935       -2.4747247178
 C         1.5766684240       -3.4830955693       -2.5269495256
 C         2.8617982189       -4.3698192533       -2.2299613724
 O        -1.8448815352       -3.4467673255       -1.0868555967
 O         1.6414382117       -2.3210387716       -2.7355325286
 C         0.1077893096       -5.4233682518       -1.5185214776
 C        -0.2823941742       -4.9513863711       -3.8583000791
 H         7.6285697420        7.4235216154       -7.0498335363
 H         7.6041789570        5.6639082799       -6.5432152175
 H         6.3798233318        6.8152551134       -6.3551112901
 H         9.8743951059        4.2834595363       -1.9546836210
 H         8.3341813609        5.0321982511       -1.8101918663
 H        10.9186341228        4.7453153174       -5.3190600592
 H        10.9255461743        6.3263525101       -5.8679251892
 H         9.7457629088        5.1908946915       -6.4870790915
 H         9.8782665427        6.7428345941       -2.3767029457
 H        11.1648259968        6.8201841358       -3.6161768013
 H         9.8155066526        7.9489578336       -3.6123617807
 H         8.4953704953        2.3237550842       -2.9317765500
 H         8.8079302994        2.4753658137       -1.1521800957
 H         4.9028453098        3.5089560175        0.5236954577
 H         4.0098606659        4.5887577549       -0.5625917427
 H         4.9353893687        0.4604625325       -2.7526255642
 H         6.6333338606        0.2106616397       -2.6801227263
 H         5.8198981714        1.4676351456       -3.7173075204
 H         5.7925127542        0.1125146714       -0.1324780418
 H         7.3416098767        0.9773984878       -0.4582051606
 H         6.1952723813        1.7165940931        0.6738684720
 H         2.0430226329        3.6522442095       -0.0963440466
 H         2.9098582485        3.7654939608        1.4261750268
 H         0.7565362092        1.7230966540        2.6250368773
 H        -0.8874813231        1.4872152071        2.5687512346
 H        -0.4595004581        2.0526279625       -0.7575225550
 H         0.0886054366        0.8003448363       -1.7322448600
 H         1.0868308259        2.3280481940       -1.5883043226
 H         2.3426288533       -1.0519376385        0.2306555576
 H         0.8588843086       -0.9387158249       -0.7286947682
 H         2.4004704067       -0.1731173072       -1.3885473238
 H        -0.2415849089       -1.2316398800        3.2461522460
 H         1.1818982117       -0.4847001613        3.8554614569
 H        -3.9518257692       -0.9941325424        5.7697202410
 H        -3.1940845634       -0.7325209069        4.1540161017
 H         0.2266558393       -2.8285934227        6.0446924187
 H         1.1097248531       -1.5687409904        7.0083306563
 H         1.1157139662       -1.6750188621        5.2799440630
 H        -2.3067246659       -0.0187622822        7.2450857599
 H        -1.2393875393       -0.8570941573        8.2700945425
 H        -0.7908290631        0.6282403244        7.4120443275
 H        -5.2134475809       -2.3280573808        4.4461828320
 H        -4.2123631140       -3.4081137743        5.2075055048
 H        -7.2188877986       -4.3836035937        0.9459471282
 H        -6.9101583543       -4.0233651204        2.7591585786
 H        -2.3773602194       -5.4026759324        2.0552891889
 H        -2.6986568235       -4.0232111160        1.0203799290
 H        -3.6287275472       -5.5594885503        0.7479634077
 H        -5.2347273950       -6.2977655621        2.7626591898
 H        -3.9420253533       -5.9010602147        3.8189617699
 H        -5.5456659310       -5.1062539482        4.0341069950
 H        -6.9552596569       -2.2308090079        0.3749780075
 H        -8.4764664971       -2.8026619857        1.0634797084
 H        -7.5521219415        2.2709131955        0.8508722748
 H        -6.4533100876        0.8926605467        1.1192895266
 H       -10.2299161798       -1.8343658544        1.7403338038
 H       -10.7103286466       -0.1814090103        1.8089867559
 H       -10.0694315496       -1.1103903179        3.3215722838
 H        -9.3186570644        1.5801630796        3.2801614509
 H        -8.4138089731        0.4359725542        4.2562076221
 H        -7.4795269005        1.3395860927        3.1961884550
 H        -6.6913796689        2.2959326056       -1.3556654440
 H        -7.4712354069        0.8821966930       -1.7124344481
 H        -3.4850434001       -2.9530680773       -2.8213576389
 H        -3.3731041779       -2.1208559177       -4.2697712052
 H        -5.8040210965       -1.8978083187       -3.8634923517
 H        -6.9972668134       -1.0383553519       -3.1455220749
 H        -6.1006611904       -2.1278581308       -1.9866801970
 H        -4.6179214796        0.5652600597       -4.5813415157
 H        -6.0105579631        1.1728934043       -3.6928504681
 H        -4.3711648665        1.6423751848       -3.2327346984
 H        -1.0218212598       -2.2078841491       -4.1019344385
 H        -1.1233945056       -1.2389751855       -2.5451832717
 H         3.7724167662       -3.7817205556       -2.3091878009
 H         2.8212091329       -4.8395780536       -1.2661426677
 H         2.8436457129       -5.2585404863       -2.9148666320
 H        -0.2256650434       -4.8280421680       -0.6852956280
 H         1.0581078885       -5.9926583061       -1.4103088387
 H        -0.6654332371       -6.1459310150       -1.7152212153
 H         0.4774524864       -5.6506659883       -4.0172285367
 H        -1.2341865455       -5.4205402512       -3.7800970048
 H        -0.3003109286       -4.3156212119       -4.7753232343
 Na       -2.9482842347       -1.5719054590        0.1415086967
