155

 C         7.2178835355        7.0943460051       -6.1158288992
 C         8.2530810934        7.5466028531       -4.9911975572
 C         9.5895521487        6.6589817332       -4.8784759231
 C         9.4870649036        5.4910753423       -3.7967627133
 C         8.1176997974        5.3587395770       -3.0084548836
 C         9.9987850120        5.9344353767       -6.2348565671
 C        10.7034339249        7.6120965807       -4.3707615906
 O         8.0138025177        8.5410456320       -4.2925314648
 O        10.3766986468        4.6624232329       -3.7064623703
 C         7.9373016032        3.9747170263       -2.2114414584
 C         6.4925181162        3.8711789330       -1.6418072886
 C         6.0582935752        2.3966410101       -1.3900603426
 C         4.5106369751        2.4027789571       -1.2947920159
 C         3.7356407419        3.0854283499       -0.1253323346
 O         5.8102882501        4.8207608311       -1.2335899808
 O         3.8293793714        1.8455408202       -2.1390447161
 C         6.5169215363        1.5403321584       -2.5753764799
 C         6.6842027330        1.9930660644       -0.0816350499
 C         2.2362925512        2.9583270973       -0.1144013272
 C         1.8530981361        1.7525254324        0.8035935438
 C         1.4478764993        0.3727345737        0.3901592375
 C         0.2805681441       -0.1138666003        1.2668642692
 C         0.3211211435        0.1150901338        2.7311487457
 C         0.9968877653        0.3649571480       -1.0266803482
 C         2.7177904353       -0.5384522181        0.4658552435
 O         2.0532097870        1.9302777442        1.9933110864
 O        -0.6384345892       -0.6653454562        0.6692737281
 C        -0.5572429619       -0.8168381704        3.6066160202
 C        -0.8354399331       -0.0883211182        5.0186690704
 C        -1.4419850477       -1.0823472654        6.1813659737
 C        -2.4084505208       -2.0978027678        5.5873494962
 C        -3.9035444140       -1.9028222475        5.4831823020
 O        -0.3955481290        1.0195112564        5.2417789121
 O        -1.9297354436       -3.1794575987        5.1564789553
 C        -0.0162611873       -1.7622438182        6.6770490497
 C        -1.9284487554       -0.2414662409        7.4596027467
 C        -4.5168544445       -3.1796675692        4.7567557237
 C        -4.1243740752       -3.1709123223        3.2833442868
 C        -4.5033263558       -4.3639797671        2.3817038394
 C        -5.2847508567       -3.7799394760        1.2323936344
 C        -6.7102742684       -4.1983982001        0.9343575942
 C        -3.2791268048       -5.0438728810        1.7706499260
 C        -5.3585521016       -5.2962134140        3.1739784300
 O        -3.5199654153       -2.2495024281        2.8053408866
 O        -4.7582037308       -2.9190947682        0.4734758876
 C        -7.4572723940       -3.0819224260        0.2841701095
 C        -8.1973376086       -2.2279153285        1.2972901419
 C        -9.0395947636       -0.9523025338        0.7588445936
 C        -8.1526697196       -0.2389147198       -0.2792964030
 C        -7.1130306825        0.8491855906        0.2015207248
 O        -8.0733008075       -2.4729391192        2.4917649795
 O        -8.0337482584       -0.6068653374       -1.4112449232
 C       -10.2971106129       -1.5694471254        0.1582821972
 C        -9.4130162793       -0.0222262382        2.0181669963
 C        -6.0442428141        1.3539930900       -0.8478659404
 C        -4.8897323374        0.3463171931       -0.9298025817
 C        -4.5370337470       -0.1780441239       -2.3559482764
 C        -3.0076232125       -0.5044101727       -2.3573635093
 C        -2.5327802663       -1.4489188154       -3.5081083378
 C        -5.2189943914       -1.6497556076       -2.4500516077
 C        -4.8243572073        0.7833049611       -3.6385213636
 O        -4.4518855940       -0.1277082053        0.1109963347
 O        -2.2314434123        0.0747718351       -1.6033112081
 C        -1.2813139315       -2.1453705282       -3.1183544917
 C        -1.3222247747       -3.0154023930       -1.8755317835
 C        -0.1575321746       -4.0847872191       -1.6486467222
 C         1.1807833509       -3.4611500370       -2.2735921551
 C         2.4899701162       -4.1973687579       -1.9667636309
 O        -2.2236808756       -2.9420020828       -1.0313550594
 O         1.2384103216       -2.4135260087       -2.8906037218
 C         0.0922689236       -4.1466537895        0.0034257354
 C        -0.5441288688       -5.4844984191       -2.3900331661
 H         6.8193867457        6.1176620944       -5.7880053379
 H         6.3371412479        7.8132889484       -6.1109247711
 H         7.6159502083        7.0010014063       -7.1153146043
 H         8.0296165994        6.2491881241       -2.4203835932
 H         7.2552843123        5.3476035733       -3.7290358755
 H        10.8243316281        5.2473241045       -6.0043408016
 H        10.3961465476        6.6987186079       -6.9141706734
 H         9.2960964362        5.3368581768       -6.7183950615
 H        10.6270442073        7.8332156839       -3.2954036436
 H        11.6220134690        7.0635309242       -4.6140852178
 H        10.6643016574        8.5190245284       -4.9426632882
 H         8.2430690769        3.0667668661       -2.7346629582
 H         8.7007494512        3.9686663941       -1.4226236122
 H         4.1801472165        2.8004019463        0.8535106870
 H         4.0031480554        4.0952160494       -0.1603990121
 H         6.1593348649        0.4890866126       -2.5529060513
 H         7.6412925209        1.5056425807       -2.6094044014
 H         6.0505400119        2.0233463162       -3.5048778120
 H         6.5441529652        0.9354201100       -0.0211915368
 H         7.7546670247        2.2770495858       -0.1693017272
 H         6.1190856077        2.5339740250        0.7551960200
 H         1.7955644496        3.0005846314       -1.1597262234
 H         1.8444775917        3.8777121724        0.3562080956
 H         1.3459752319       -0.3089788761        3.0049423216
 H         0.1740067668        1.1808504391        2.9509467966
 H         0.1259740823        0.9545148671       -1.3885089193
 H         0.6780271659       -0.6259146668       -1.3843393964
 H         1.8805002383        0.6531979937       -1.6025368855
 H         2.8478336974       -0.8982470609        1.4995518659
 H         2.3938267611       -1.3878755084       -0.1059523861
 H         3.6205839725       -0.0502180707        0.0775454110
 H        -1.5111392048       -1.0722207726        3.1320625859
 H         0.0500640984       -1.7457933031        3.8328993395
 H        -4.2385764824       -1.8219778579        6.5234702851
 H        -4.0917936479       -0.9415367602        5.0714970174
 H         0.2987712068       -1.4900587613        7.7562964727
 H         0.7436123462       -1.3468731370        6.0260481414
 H         0.0657853140       -2.8461793104        6.6464587293
 H        -2.6898524594        0.5031239216        7.2612871597
 H        -2.4738056985       -0.9411635270        8.0340740145
 H        -1.0536367189        0.2036047500        7.9298402996
 H        -5.6527444504       -3.1119065373        4.7185594769
 H        -4.1443119297       -4.0221690711        5.2920889216
 H        -6.6073178828       -5.0374988481        0.2364522782
 H        -7.2673131726       -4.6958631986        1.6732798546
 H        -2.6827073079       -5.6132638069        2.4670867833
 H        -2.7037568722       -4.2832062340        1.2563407357
 H        -3.6363078597       -5.6969942330        0.9746968112
 H        -5.8049385064       -5.9655401367        2.4270052722
 H        -4.8384045237       -6.0247173431        3.7762778294
 H        -6.2094537652       -4.8235852220        3.6599269382
 H        -6.6052511269       -2.5015292678       -0.2289807172
 H        -8.0508484475       -3.4437441875       -0.5890451484
 H        -7.8318260051        1.5989901411        0.6880686572
 H        -6.4612255561        0.5058376227        1.0205334348
 H       -10.1094176407       -2.6161564921       -0.0289412345
 H       -10.2729981996       -1.1868481230       -0.8710272954
 H       -11.1062097541       -1.5031614370        0.8532078689
 H        -9.7975840389        0.9719824324        1.7857208950
 H       -10.1771733477       -0.6154082184        2.5179464332
 H        -8.5225027384       -0.1287733233        2.7093009187
 H        -5.6724371140        2.2770734065       -0.5567557015
 H        -6.4551166135        1.4306687208       -1.8235984837
 H        -3.3406576983       -2.1500063689       -3.7074657355
 H        -2.2965039865       -0.7746990451       -4.3173850553
 H        -5.4961067593       -1.7605950448       -3.5655475559
 H        -6.2651696673       -1.6348097576       -1.9650913709
 H        -4.5082330004       -2.3542517371       -2.0200949361
 H        -4.4379027253        0.3470470342       -4.5456304825
 H        -5.9027112748        0.8424761935       -3.7859644473
 H        -4.4529841693        1.8106637498       -3.4706999914
 H        -0.8928337395       -2.7417032736       -3.9196002236
 H        -0.4797616785       -1.4285586331       -2.9282309177
 H         2.7675404367       -4.9925623513       -2.6690250756
 H         3.3153996195       -3.4421401670       -2.0271908008
 H         2.4472216622       -4.6417732473       -1.0140341069
 H         0.8223195101       -3.3413342467        0.2682725083
 H         0.2302167650       -5.1386600507        0.4113047344
 H        -0.8973496881       -3.8274248303        0.4685953593
 H         0.1878383252       -6.2821566295       -2.1375070071
 H        -1.5435322277       -5.6607994090       -2.0304883483
 H        -0.6057971266       -5.3107685888       -3.4162399955
 Na       -2.7856169777       -1.4299370891        0.6661717046
