155

 C         7.3214776881        7.9109843151       -6.1811002940
 C         8.1286228863        8.1183411732       -4.9073477399
 C         9.3067687623        7.0840041817       -4.5702845844
 C         9.0907864406        6.3024609418       -3.2789558481
 C         7.6033524391        5.7327513750       -3.1647539131
 C         9.4500036201        5.9360840539       -5.6370010814
 C        10.5890359538        7.9977112185       -4.4723599128
 O         8.0543281146        9.1514609252       -4.2849062634
 O         9.8632160318        6.3590672693       -2.3263840576
 C         7.5071416149        4.5377317715       -2.1175909462
 C         6.2836267272        3.7475565585       -2.2307062709
 C         6.0741693051        2.7894563177       -1.0263444824
 C         4.6130864461        2.3647884936       -0.8272249133
 C         3.5186468733        3.4888819235       -0.4423410133
 O         5.3975572123        3.8174645973       -3.1299018070
 O         4.2199391811        1.2171166814       -0.9906318993
 C         6.8681560935        1.4859689868       -1.2226714112
 C         6.5635090062        3.4211801814        0.3073126925
 C         2.0607461946        3.0454168019       -0.4278057348
 C         1.6574780610        2.2304060256        0.9526406467
 C         1.4844792065        0.6493949359        0.8692554540
 C         0.2698800474        0.1434006541        1.8276553841
 C         0.0378185131        0.6409670591        3.1792685922
 C         1.3152827453        0.0605621016       -0.5136219071
 C         2.8308583188        0.1266712345        1.5454105859
 O         1.5844418774        2.8594811632        2.0366073996
 O        -0.5175423407       -0.6068266099        1.2599553283
 C        -0.0621959195       -0.5115914932        4.2735755082
 C        -0.9171377230       -0.2830012097        5.5366253538
 C        -1.4014206882       -1.5354517951        6.5154646474
 C        -2.5527096526       -2.2604863652        5.7830031836
 C        -3.7208820168       -1.4511468488        5.2821097835
 O        -1.4606246194        0.7791800277        5.7454843155
 O        -2.4982055296       -3.4398575955        5.4917354161
 C        -0.2397976146       -2.6384175106        6.7941954307
 C        -1.9616540383       -0.8929371591        7.8189836174
 C        -4.6209266514       -2.3088067660        4.3736030876
 C        -3.7977718349       -2.8468272035        3.1829592889
 C        -4.3991181501       -4.1207158437        2.4346085122
 C        -5.2771520803       -3.7089748701        1.1559010496
 C        -6.4676780918       -4.4859982465        0.6882112468
 C        -3.1713141512       -4.8481322702        1.7878442459
 C        -5.2181821645       -4.9866447486        3.4668653619
 O        -2.7646940841       -2.2550310603        2.7700934750
 O        -4.8294986822       -2.8564401415        0.4805977734
 C        -7.2221953225       -3.5848240910       -0.3070682296
 C        -7.9344392183       -2.4895594059        0.5699214134
 C        -8.8732823984       -1.5341163804       -0.2503223962
 C        -7.8542059845       -0.6164508018       -1.2863293256
 C        -7.3626266379        0.6514573982       -0.7637139217
 O        -7.6464422973       -2.2402843046        1.7435084079
 O        -7.7866525568       -1.0455642124       -2.3869678158
 C        -9.9671450177       -2.3675213993       -1.1246759104
 C        -9.5727583455       -0.5029515125        0.6822831977
 C        -6.1682112678        1.1461068503       -1.4860834514
 C        -4.9109368943        0.2843282065       -1.1826153825
 C        -4.0057642249       -0.1416802971       -2.4723703852
 C        -2.6017467319       -0.5688835342       -1.9862577752
 C        -1.8403531984       -1.3538414380       -3.0882290861
 C        -4.8707491097       -1.3430459795       -3.0694690019
 C        -3.9073648907        0.9610566532       -3.4961960239
 O        -4.5812569072       -0.0262322932       -0.0675968227
 O        -2.0029601394       -0.1669821497       -1.0286943623
 C        -0.6407176309       -2.2536563709       -2.6478151650
 C        -1.0562476325       -3.3380530107       -1.6223660661
 C        -0.1883661943       -4.6208840266       -1.5136580582
 C         0.8856105060       -4.6101092361       -2.6261367384
 C         0.5636664703       -5.4138194218       -3.9091859792
 O        -2.1318019471       -3.1803522944       -1.0714494590
 O         1.8936814857       -3.9964407886       -2.5149338832
 C         0.5748580001       -4.5572824603       -0.0431336728
 C        -1.2024315252       -5.8480056337       -1.5991121221
 H         6.2829227510        8.0413710847       -6.0765382139
 H         7.6048568199        8.7048821917       -6.8812788312
 H         7.6794154602        7.0761851689       -6.7215182832
 H         7.0372862745        6.5931819193       -2.8320190786
 H         7.3014124463        5.5681507409       -4.1930368016
 H        10.2528095883        5.1475780098       -5.5358223563
 H         9.6411223716        6.3315340071       -6.6280535638
 H         8.4949600801        5.4325641778       -5.7096911557
 H        10.4628069350        8.7876463491       -3.7348184917
 H        11.3955821934        7.3545390696       -4.0811503794
 H        10.8569884924        8.3059912758       -5.4573234302
 H         8.3499270500        3.8928487744       -2.1768976259
 H         7.4345821249        5.1207209189       -1.2162734257
 H         3.6635468702        3.8995552736        0.5184138641
 H         3.6602938436        4.2565243550       -1.2257321879
 H         6.9572629775        1.0338664849       -0.2702635743
 H         7.8660088570        1.6341570564       -1.7035775548
 H         6.2915404204        0.8889420179       -1.9138698012
 H         6.4037640661        2.8588269249        1.1574834577
 H         7.6159978456        3.5948073085        0.2442080194
 H         6.0058156886        4.3070594549        0.6268767883
 H         1.7647395324        2.4364980337       -1.2677763288
 H         1.4817461419        4.0153889407       -0.4653685519
 H         0.7277548010        1.4207724346        3.5027680722
 H        -0.8317424703        1.3251525202        3.0791847967
 H         0.2955903319        0.1054187829       -0.9719496097
 H         1.5825131159       -1.0510877127       -0.6690596281
 H         2.0454476418        0.5235294174       -1.2483915170
 H         2.7518592190        0.1550352356        2.6265689036
 H         2.8937364046       -0.9440663875        1.3629463969
 H         3.6978142673        0.7115235667        1.3278074013
 H        -0.4245961847       -1.4662292282        3.8353739994
 H         1.0296590118       -0.6502430932        4.4503896074
 H        -4.2077968875       -1.0483304730        6.1449711438
 H        -3.3485364712       -0.5849903802        4.7691512690
 H        -0.4094194688       -3.2809707637        7.5921381470
 H         0.6112449948       -2.0272331731        7.1304360674
 H        -0.0992867621       -3.2164426217        5.9569764131
 H        -2.4108320916        0.0879791648        7.5017291203
 H        -2.7349908604       -1.6001421699        8.1192709550
 H        -1.2990188046       -0.8108432004        8.6761940452
 H        -5.3506108847       -1.6179712989        3.9748880234
 H        -5.1598574543       -3.0952115947        4.9283970155
 H        -6.0843906721       -5.4010961201        0.2442644294
 H        -7.1226423932       -4.6887954971        1.4792610976
 H        -2.4599082337       -5.1532704492        2.5585350439
 H        -2.8059933275       -4.2044821536        0.9779262523
 H        -3.4564881118       -5.7659101931        1.1994957084
 H        -5.2356480025       -5.9566801231        2.9870256844
 H        -4.8401659273       -5.2111856811        4.4158702404
 H        -6.2445307082       -4.6254643246        3.4918649609
 H        -6.4185526028       -3.1294329273       -0.9769500930
 H        -8.0526620297       -4.2462395601       -0.7231192800
 H        -8.1761232989        1.4133447527       -0.7812060342
 H        -7.0636196341        0.4193034324        0.3037980233
 H        -9.9612224055       -3.4602044914       -1.1570693543
 H        -9.8811280976       -2.0670021210       -2.1597447942
 H       -10.9755300971       -2.1243287751       -0.8490985269
 H       -10.1067101059        0.2749338777        0.1486410828
 H       -10.2452185585       -1.0993748398        1.2563851833
 H        -8.9207014662        0.0001039564        1.4293105584
 H        -6.0127517867        2.1283947254       -1.2068784057
 H        -6.2461839680        1.1379225357       -2.5387679944
 H        -2.5685979709       -1.9044550769       -3.6532322847
 H        -1.3650311171       -0.6983690367       -3.8600021524
 H        -4.3313899727       -1.6573502522       -3.9568220459
 H        -5.8389932193       -0.9928221743       -3.3957420246
 H        -4.8204393302       -2.1770018655       -2.4269513744
 H        -3.2247904494        0.7361127171       -4.3543648167
 H        -4.8562107155        1.2526101417       -3.9143346345
 H        -3.7082342034        1.8884737005       -2.9896838379
 H        -0.2073686824       -2.7247210303       -3.5841735306
 H         0.1298828104       -1.6475162888       -2.2673625053
 H        -0.4994432253       -5.3137613095       -4.1307740508
 H         1.1743368985       -4.9640348452       -4.7264972934
 H         0.8379327107       -6.4506962785       -3.7941451618
 H         1.2056081886       -3.6709618589        0.1147810750
 H         1.1744067674       -5.3987965293        0.1295120547
 H        -0.1881719154       -4.6191103995        0.7294340783
 H        -0.6667793616       -6.8274646679       -1.7794954804
 H        -1.6350122233       -5.8712840781       -0.5992813711
 H        -1.9989691876       -5.6819883858       -2.3265879402
 Na       -2.7920279837       -1.5392487873        0.5913625332
