155

 C         7.4334804407        8.2729911871       -6.4468516206
 C         8.1090122934        8.2321527607       -5.0433933431
 C         9.2295839170        7.1939198288       -4.6081902676
 C         8.7040387867        6.4055337774       -3.2381613647
 C         7.2318717380        5.9861247708       -3.2052786735
 C         9.5747615236        6.2506792335       -5.7699621822
 C        10.4425410910        8.0680597708       -4.1367595326
 O         7.9062472962        9.0650022486       -4.2312494749
 O         9.5514788460        6.1351917836       -2.4131166419
 C         6.8687151154        5.2675414073       -1.8132958652
 C         6.0902342045        3.9901067214       -1.9130804453
 C         5.9375818030        3.0073654989       -0.6096847722
 C         4.5450790061        2.3923791236       -0.5078491192
 C         3.3290160905        3.3241265897       -0.2602787342
 O         5.6006298149        3.5039030988       -2.9452553787
 O         4.2777593406        1.2407816342       -0.7046647966
 C         6.9430281158        1.8277936761       -0.8681363302
 C         6.3229596749        3.6750839191        0.7040716050
 C         1.9347048649        2.6758863221       -0.2764067192
 C         1.6388238801        1.9835476254        1.0621050080
 C         1.4888814177        0.4904539686        1.1103848509
 C         0.0712295520        0.0890397817        1.8206212634
 C        -0.2407751719        0.6473585856        3.1689235541
 C         1.5899167833       -0.2726615477       -0.1838910513
 C         2.4824241700       -0.0775863303        2.0601070552
 O         1.4290792285        2.5661466744        2.1285609009
 O        -0.5024688143       -0.8393364889        1.3385907818
 C        -0.3637706796       -0.5711339607        4.1374652288
 C        -1.1182193544       -0.2554962529        5.3668736382
 C        -1.4428916253       -1.4234694604        6.3153437098
 C        -2.5831246715       -2.1687269893        5.6708423712
 C        -3.9913116088       -1.4717518463        5.4466056638
 O        -1.5384915705        0.8315689071        5.5964132504
 O        -2.5031915121       -3.3215843792        5.3594769376
 C        -0.2697190875       -2.3909089639        6.4086525542
 C        -1.8658500727       -0.9507269289        7.7444383926
 C        -4.7488780827       -2.3420561517        4.3960662570
 C        -3.8668139731       -2.7641132106        3.2473469835
 C        -4.1076292382       -4.1069195418        2.5779637024
 C        -4.9872465355       -3.5802161751        1.2747839432
 C        -6.2493141474       -4.4021032711        0.8681547006
 C        -2.7696528982       -4.7192131058        2.1390753439
 C        -4.9577205332       -5.0992945522        3.3335364903
 O        -2.9848301071       -1.9874049384        2.7757053556
 O        -4.6616329463       -2.6190337035        0.6845235779
 C        -7.0263827223       -3.6009548353       -0.2089530231
 C        -7.8467980708       -2.4907718547        0.5011358665
 C        -8.8898965978       -1.5128163620       -0.3282493456
 C        -7.9066891503       -0.8211149680       -1.3327904836
 C        -7.2993049611        0.6297975741       -0.8739150276
 O        -7.7155197883       -2.2104779890        1.6780748888
 O        -7.6468051399       -1.2319052559       -2.3872413804
 C        -9.8445470155       -2.2152491316       -1.3041026087
 C        -9.6580008338       -0.6030905648        0.5656505999
 C        -6.1735965409        0.9759829001       -1.8990208865
 C        -4.7950540989        0.2277138542       -1.5548299559
 C        -3.9017238005       -0.0501902352       -2.7979551535
 C        -2.3953658342       -0.4677967470       -2.2973908942
 C        -1.6832725189       -1.5640155844       -3.1985823694
 C        -4.6336114160       -1.1726427996       -3.5551154424
 C        -3.6691895914        1.1414665525       -3.7722849063
 O        -4.4317989588        0.0081003529       -0.4226723697
 O        -1.8806380485       -0.0132232450       -1.3098644897
 C        -0.5137798063       -2.2532771996       -2.5057003383
 C        -0.8938206664       -3.4127485273       -1.5289806102
 C        -0.0920764800       -4.7553672653       -1.6291207631
 C         0.8284089186       -4.9765938210       -2.8535607361
 C         0.1369043488       -5.4058619803       -4.2493335450
 O        -1.6816241935       -3.2568413780       -0.6228732477
 O         1.9995327542       -5.2508140377       -2.7266713674
 C         0.6550919321       -4.8333711662       -0.3075354809
 C        -1.1575597321       -5.8599879346       -1.6511998843
 H         7.8188307429        9.1520797337       -6.8736317034
 H         7.5665891554        7.4039992785       -6.9940868431
 H         6.3697167169        8.1755369778       -6.3710497227
 H         6.5848074799        6.7945131845       -3.4543135550
 H         7.1540098095        5.1723408353       -3.9222356644
 H        10.2513853422        5.4241350974       -5.4729152804
 H        10.1067782172        6.8036999385       -6.5351987198
 H         8.7682228791        5.7862893613       -6.2411533316
 H        10.0918908419        8.8408830560       -3.4160274791
 H        11.1685881181        7.3985626670       -3.6236467360
 H        10.8999452532        8.6163590883       -4.9402847661
 H         7.8021554294        5.0702799398       -1.2632819033
 H         6.1331614701        5.8344067026       -1.2466522710
 H         3.5023353958        3.7743778038        0.7098035028
 H         3.3379776016        4.1326931731       -1.0622714968
 H         6.6305698497        1.0401288047       -0.3051550841
 H         7.9347435436        2.1661014484       -0.5074811931
 H         6.9705323793        1.4680251205       -1.8698545234
 H         6.2041242297        3.1045563790        1.5758166795
 H         7.3862912541        3.9052342080        0.7647322590
 H         5.8623681953        4.6853241714        0.9379081566
 H         1.7725391512        2.1583738832       -1.2107851042
 H         1.2087677487        3.4829562883       -0.3507960200
 H         0.4537125135        1.3953836594        3.4985563166
 H        -1.1808849255        1.1408845704        3.3406664146
 H         0.7477965955       -0.3089542140       -0.8363994838
 H         1.8676670631       -1.4048402862       -0.0826271088
 H         2.3637952895        0.1791097110       -0.7834650021
 H         2.5813654294        0.6520168189        2.8740743023
 H         2.1309049224       -0.9695031024        2.5567573370
 H         3.5121080678       -0.2626676447        1.6965919823
 H        -0.8655067406       -1.3783590717        3.6371819970
 H         0.5728659522       -0.9726094653        4.5560279431
 H        -4.3984258270       -1.6261597722        6.4239152498
 H        -3.9976995824       -0.4573595723        5.3053746758
 H        -0.5168963539       -3.2334455268        6.9239024004
 H         0.5705398728       -1.8633548250        6.9435088308
 H        -0.0266322880       -2.6804840804        5.4206173734
 H        -2.6445080848       -1.6482759842        8.0904349991
 H        -0.9737191681       -0.9746263237        8.3210612790
 H        -2.1873705898        0.1005030963        7.8405614416
 H        -5.5719203181       -1.7709602122        3.9439899450
 H        -5.3310532304       -3.1098974026        4.8857812315
 H        -5.9756324910       -5.4150646852        0.4937450977
 H        -6.9267958983       -4.5347427913        1.6607297364
 H        -2.3046091562       -5.0822985723        3.0832479985
 H        -2.1424600113       -3.9688327231        1.6880552087
 H        -2.8488378630       -5.5781732915        1.5210814214
 H        -5.1326625301       -5.9061780825        2.6745674096
 H        -4.5966407139       -5.4154635685        4.2782522324
 H        -5.9436354794       -4.6155720886        3.5762326227
 H        -6.3302232527       -3.0454298939       -0.9335201238
 H        -7.7294497821       -4.2449798980       -0.8286869817
 H        -8.0725879137        1.4117272009       -0.8408964582
 H        -6.8702184325        0.4666970939        0.1329014290
 H       -10.5224133446       -1.5213225385       -1.7930385823
 H       -10.3071563136       -3.1367878780       -0.9959567309
 H        -9.2533235002       -2.6579322479       -2.1214245220
 H       -10.3668154424       -0.0196658653        0.0151993270
 H       -10.2622019265       -1.1259182149        1.2781941895
 H        -8.9683205107        0.0949660149        1.1220715118
 H        -5.8127280471        1.9642874576       -1.9554333939
 H        -6.5106432562        0.6774285369       -2.8709768928
 H        -2.3989278028       -2.3338454883       -3.4357247607
 H        -1.4400015316       -1.0220566315       -4.1566770992
 H        -4.3262259626       -1.1660552555       -4.5415042172
 H        -5.6793406103       -0.9793653653       -3.6304389585
 H        -4.4497589200       -2.1137975170       -3.0596841489
 H        -3.1985019220        0.9865965337       -4.7440570307
 H        -4.6400905603        1.5821667511       -3.9995940645
 H        -3.1298634759        1.9554595821       -3.2633395693
 H         0.2042131916       -2.7107766426       -3.2559233384
 H        -0.0374354125       -1.5601913390       -1.8730757678
 H        -0.9088646398       -5.0935747859       -4.4732853614
 H         0.8558355505       -5.1336197938       -5.0358800029
 H         0.0431999039       -6.4686891236       -4.0815895458
 H         1.5397271540       -4.1917819412       -0.3323548696
 H         0.9060838156       -5.8434880501       -0.0193595461
 H         0.0879384596       -4.3798963646        0.5449167024
 H        -0.7740077037       -6.7891335648       -1.1663140792
 H        -1.9696518666       -5.5717570970       -1.0275410066
 H        -1.4600837052       -6.0633552156       -2.6279947298
 Na       -2.5303006031       -1.1427010863        0.6317349583
