155

 C         7.6294728193        8.4316756786       -6.3767537065
 C         7.9635257666        8.3319460046       -4.8959515154
 C         9.0364181250        7.1922144233       -4.3868285950
 C         8.4719981660        6.3501032903       -3.1636618115
 C         6.9904325814        5.9966079029       -3.2019625562
 C         9.2467467826        6.1598589158       -5.4354134082
 C        10.2982295495        7.9976180732       -3.8234091419
 O         7.1945883757        8.8475926851       -4.1390557563
 O         9.2134729728        6.0065155462       -2.2674945087
 C         6.6310874175        5.4678707236       -1.7769791567
 C         5.8793616618        4.1456177718       -1.8023685753
 C         5.8916377291        3.3807806976       -0.3661624266
 C         4.5411357670        2.6607584244       -0.2651222668
 C         3.2227212299        3.4359317496       -0.3446783089
 O         5.4324297762        3.6000280404       -2.7561902658
 O         4.5148823408        1.4693917823       -0.3669199104
 C         7.1646369395        2.4566958662       -0.5074236065
 C         6.1162462241        4.3352156538        0.8041667964
 C         2.0312871306        2.4323759302       -0.2163916658
 C         1.9236532204        1.8876600328        1.1679491523
 C         1.7880684049        0.2160597232        1.3718202822
 C         0.2082749166       -0.0955413749        1.6749382284
 C        -0.4959356100        0.3610256536        2.9864963258
 C         2.3237477017       -0.5821836199        0.1707580062
 C         2.6486269539        0.1824420299        2.7106106201
 O         1.8834322956        2.5456128397        2.1667400026
 O        -0.4720268758       -0.5188634557        0.7792367131
 C        -0.6399108282       -0.8131517463        4.0777663530
 C        -1.2420320489       -0.2492508194        5.4202865648
 C        -1.5056679558       -1.3937846960        6.5714723924
 C        -2.6463830824       -2.2832025471        5.8952989354
 C        -4.1047282311       -1.6359216190        5.7613238547
 O        -1.5742052518        0.8967176933        5.5504877961
 O        -2.3808178199       -3.3045130262        5.3487776878
 C        -0.0712541040       -2.0856675790        6.7033951131
 C        -2.0100337465       -0.8622576261        7.9364978270
 C        -4.8253898552       -2.3673155080        4.6077250331
 C        -4.2773982850       -2.4128947851        3.2567689883
 C        -4.1991845027       -3.8488692960        2.3973126806
 C        -4.9386920222       -3.8058361167        1.1182706774
 C        -6.2889968867       -4.5616660767        0.9066447690
 C        -2.6374101352       -4.0318482400        2.1937963374
 C        -4.8057427536       -5.0136595973        3.2743610371
 O        -3.6378353052       -1.4774636641        2.6660996621
 O        -4.5854675384       -3.1628509913        0.1452844704
 C        -7.2411679965       -3.8247524882       -0.0384081625
 C        -7.7550592053       -2.5033787038        0.5484780211
 C        -8.6550052766       -1.5824526788       -0.4016811945
 C        -7.6842146393       -0.9586942183       -1.4480916468
 C        -7.0298807434        0.4952142590       -0.9733456308
 O        -7.7073082601       -2.2208338899        1.7325807655
 O        -7.3962869113       -1.4965339911       -2.4387200071
 C        -9.6798862090       -2.4278343139       -1.2212942452
 C        -9.4630567688       -0.3598024930        0.2645133332
 C        -5.8544285893        0.8975968408       -1.9636486910
 C        -4.4973255489        0.2130398931       -1.7898306505
 C        -3.7806956087       -0.1062233318       -3.0805798927
 C        -2.3492645023       -0.7239926467       -2.8077324963
 C        -1.7117873571       -2.0491972945       -3.4236377617
 C        -4.6635339747       -0.8849157499       -4.0351984480
 C        -3.3677127704        1.2544739778       -3.8685726077
 O        -3.9390589993        0.0755192038       -0.6922595955
 O        -1.6114001247       -0.0798379556       -2.0632852359
 C        -0.4551953973       -2.3787354147       -2.4989638556
 C        -0.7452722192       -3.4056061886       -1.4164876981
 C        -0.1453789304       -4.9221614552       -1.5750901077
 C         0.5316901775       -5.3048660568       -3.0604723687
 C        -0.3356739427       -5.1066086921       -4.2891493071
 O        -1.5256846341       -3.2270373268       -0.4872828683
 O         1.6911134678       -5.6655964077       -3.1262464996
 C         0.8990125891       -5.1474208695       -0.4609684148
 C        -1.3634923916       -5.8505944304       -1.4149571950
 H         8.5224769986        8.2488682446       -6.9998792408
 H         6.7133694598        7.8763430698       -6.5284228421
 H         7.1813826385        9.4887331947       -6.5069075178
 H         6.3588303373        6.8208451194       -3.4409291124
 H         6.8646790761        5.2113164725       -3.9824783652
 H         9.7252767529        5.2432869957       -5.0191507277
 H         9.7876154788        6.4740474252       -6.3662018750
 H         8.2943792329        5.8780920875       -5.7906788344
 H         9.8569717709        8.6572367384       -3.0674265432
 H        11.0734980121        7.3424718512       -3.4153617692
 H        10.7218249503        8.7118871833       -4.4911594024
 H         7.5885605539        5.2317943472       -1.2011367054
 H         6.0233944563        6.1178974274       -1.1048802075
 H         2.9822524999        4.1910118059        0.4223832805
 H         3.1891900134        3.9963565409       -1.3528587662
 H         7.4790279750        2.0240560897        0.4025429481
 H         7.9924836735        3.1635957487       -0.7857665599
 H         7.0009601544        1.6152901499       -1.1726799206
 H         5.8132797721        3.9338012468        1.7421747067
 H         7.0949419735        4.7237645739        1.0758116717
 H         5.7193748572        5.3641546218        0.5838619039
 H         2.0199675503        1.6339743250       -0.9334245934
 H         1.1557012065        2.9434189583       -0.5094032523
 H         0.0231118343        1.1965209215        3.4274928840
 H        -1.4303764800        0.6465967721        2.5841698745
 H         2.0753081722       -0.1567611028       -0.7600087160
 H         1.8935269539       -1.5651699092        0.2720656074
 H         3.3889110117       -0.7500708670        0.1112041730
 H         2.0074730796        0.6755107997        3.4667466952
 H         2.7323238785       -0.8382106928        2.9961127973
 H         3.7308543087        0.3913861371        2.7216842693
 H        -1.2556425547       -1.5491916551        3.6053089460
 H         0.3210134983       -1.3009950796        4.2588339908
 H        -4.6406322187       -1.8247669460        6.6698036742
 H        -4.0746147962       -0.6295921158        5.6419609266
 H        -0.1287496491       -2.7863262321        7.5224139279
 H         0.7502965732       -1.3543669548        6.7160239025
 H         0.1247358742       -2.6686364154        5.7569984142
 H        -1.2683345099       -1.1056353841        8.6801959961
 H        -2.0764945124        0.2014239085        7.9173167745
 H        -3.0050596943       -1.2702408152        8.2052944290
 H        -5.8244616671       -1.8408788458        4.5363694010
 H        -5.2250808688       -3.3018860354        4.9590519692
 H        -6.2089806978       -5.6890300874        0.6782259993
 H        -6.7839950781       -4.5209932643        1.8635278355
 H        -2.0754549232       -4.0419264280        3.1543467025
 H        -2.2866182257       -3.1325235559        1.7402668670
 H        -2.4213405428       -4.8637824349        1.6506828668
 H        -5.0035348217       -5.8137138425        2.6184142538
 H        -4.2566843918       -5.2686084657        4.1896238903
 H        -5.8637385345       -4.7050837202        3.6526329277
 H        -6.7142422783       -3.5444221554       -0.9923777759
 H        -8.0569632462       -4.3521128833       -0.5171520215
 H        -7.7629182489        1.2876464266       -1.0288866595
 H        -6.6239082688        0.4728699003        0.0269001071
 H        -9.3699956344       -3.4589437884       -1.1523173654
 H        -9.6863860019       -2.2867783705       -2.3070490719
 H       -10.7685548944       -2.3096076001       -0.9698805938
 H        -9.7607938317        0.2987147886       -0.5308686886
 H       -10.4503519473       -0.5845457298        0.6906850096
 H        -8.9390449841        0.2511624438        1.0629976926
 H        -5.6506476474        1.9914334278       -1.8250019928
 H        -6.0012678108        0.6609497861       -3.0521213967
 H        -2.3857759507       -2.8828042264       -3.5053314281
 H        -1.1708750215       -1.9106252593       -4.3996750238
 H        -3.9603008947       -1.4981408583       -4.5249609846
 H        -5.2287103992       -0.4073697206       -4.8431253086
 H        -5.4587784882       -1.5505282380       -3.5328032681
 H        -2.7310191926        1.0555546723       -4.6973527072
 H        -4.2164850592        1.7115602857       -4.3430771046
 H        -2.7300693834        1.9393496130       -3.3218272315
 H         0.2726289609       -2.8673082430       -3.2205640569
 H        -0.0818713868       -1.4614895784       -2.1160366106
 H        -1.1978336120       -4.4357768142       -4.1022918113
 H         0.3204736850       -4.7973501450       -5.0675539796
 H        -0.8857347789       -6.0073160768       -4.4410121803
 H         1.7590573580       -4.4665034305       -0.4537008382
 H         1.3242035696       -6.1794207090       -0.4147280555
 H         0.4847722203       -4.8845746510        0.5639794974
 H        -1.0035049757       -6.8519180677       -1.7817168644
 H        -1.7249874166       -5.9707025483       -0.3818954793
 H        -2.1943979707       -5.6313549055       -2.0265081987
 Na       -2.6540024720       -1.4435122008        0.4141457984
