155

 C         7.8304102190        8.6772693392       -6.2689996565
 C         7.8116413184        8.1639209707       -4.8291424953
 C         8.8801043567        7.1633069749       -4.3748758942
 C         8.3498610821        6.4370808280       -3.1854656999
 C         6.8472517996        6.1292663257       -3.0850512858
 C         9.4102657946        6.1839912401       -5.5006188543
 C        10.0612215863        7.9865901545       -3.9833565420
 O         7.0470738340        8.6692605080       -4.0317213085
 O         9.0952425600        6.1814612158       -2.2700138728
 C         6.3708857531        5.7087609503       -1.6423818055
 C         5.7555516307        4.2820372564       -1.6246125358
 C         5.7568423215        3.5256822124       -0.2372848317
 C         4.6117756334        2.5571227233       -0.1632702397
 C         3.2150616559        3.1942293751       -0.3574067658
 O         5.2961294091        3.7778181623       -2.6748151769
 O         4.8026502099        1.3748693067        0.0343714035
 C         7.1256612968        2.7087186157       -0.1528046975
 C         5.6774318831        4.5711905878        0.8739295867
 C         1.9753916916        2.3189547777       -0.2412678271
 C         1.8765480235        1.8092170728        1.3169855750
 C         1.7116594475        0.2761266529        1.6801594082
 C         0.2701359932        0.0416850523        1.6631503584
 C        -0.5557855584        0.2646031122        2.9733274125
 C         2.4656687316       -0.6398030825        0.6256114477
 C         2.3336506467       -0.1650819134        3.0093552417
 O         1.9964415279        2.6229501175        2.2162369619
 O        -0.2946286250       -0.4201728237        0.6466903192
 C        -0.6240033377       -0.8285736377        4.0135890452
 C        -1.1551235893       -0.3010113905        5.2856028245
 C        -1.4872793411       -1.3396878769        6.4110503896
 C        -2.5313880177       -2.2501218630        5.7638894679
 C        -3.8979183784       -1.5335217560        5.5193347928
 O        -1.5823073876        0.8063621608        5.3727243162
 O        -2.1703079723       -3.3744201000        5.4231397091
 C        -0.3593816732       -2.2425978073        6.8961328716
 C        -2.0172026191       -0.5227216636        7.6450129316
 C        -4.9338924989       -2.2913607129        4.6075796316
 C        -4.4300757516       -2.3725033144        3.0474473888
 C        -4.1766328885       -3.8073776567        2.4830780351
 C        -4.8935746941       -3.7563584855        1.0317548580
 C        -6.2676170577       -4.4393578094        0.9889896076
 C        -2.6205059123       -4.0409339166        2.3627128613
 C        -4.5884313549       -5.0015901854        3.3672916535
 O        -4.2611800041       -1.3614904922        2.4720133122
 O        -4.3529785548       -3.0636787883        0.1816522048
 C        -7.3281249731       -3.9014246634        0.0681714641
 C        -7.8917461413       -2.4940222473        0.5950777246
 C        -8.6077385507       -1.5764844430       -0.4996208461
 C        -7.4410235433       -0.9683271695       -1.5092076207
 C        -6.7842485732        0.3463339280       -1.0783031049
 O        -7.6252899671       -2.0689027067        1.7120819086
 O        -7.0809322311       -1.6218654460       -2.5199178091
 C        -9.5615454177       -2.3273775504       -1.3480250345
 C        -9.2777962660       -0.4736327072        0.4047719977
 C        -5.7844546501        0.8504137472       -2.1314673827
 C        -4.4401088884        0.1003208843       -2.0130018846
 C        -3.5734469095       -0.0769026476       -3.2473407538
 C        -2.2057899372       -0.6397090091       -2.8281009578
 C        -1.8105155914       -2.0458118649       -3.2977619275
 C        -4.3872828901       -1.0058003433       -4.2382446124
 C        -3.3097521963        1.3271998884       -3.8921880220
 O        -4.0514932097       -0.0928806711       -0.9013280419
 O        -1.4339013902       -0.0244070185       -2.1351410983
 C        -0.4334862542       -2.5649676540       -2.6443332833
 C        -0.7298381754       -3.5903910256       -1.5026276892
 C        -0.2427837885       -5.0144645651       -1.6800508781
 C         0.3441199548       -5.3843037408       -3.1236099334
 C        -0.7580629457       -5.3252522321       -4.3545085654
 O        -1.3510215547       -3.3618894055       -0.4738374942
 O         1.5046204045       -5.6443659882       -3.2496220475
 C         0.8683834561       -5.1601063414       -0.6969445346
 C        -1.2935036293       -6.1333170331       -1.4202966269
 H         8.7860726535        8.5920807930       -6.6966954814
 H         7.0914277435        8.0361634764       -6.7710877948
 H         7.5260645563        9.6806777268       -6.3160269456
 H         6.2450946315        7.0056735360       -3.4520901458
 H         6.5956688091        5.3539016444       -3.7951461206
 H         9.3905675562        5.1574553808       -5.1897000299
 H        10.3730772892        6.4601388039       -5.7689450014
 H         8.8334838368        6.2991972855       -6.4440483188
 H         9.8998733568        8.7276182020       -3.1987364026
 H        10.8583752205        7.2911488553       -3.6948366243
 H        10.3943450150        8.5437404182       -4.8883806948
 H         7.1704867099        5.7203305928       -0.9430749676
 H         5.5991416512        6.2745389789       -1.1657529680
 H         3.1357977391        4.0432071921        0.3364469347
 H         3.1584241931        3.6263842172       -1.3187854624
 H         7.1279190777        2.1311677089        0.7653311659
 H         8.0209305824        3.3030633358       -0.1303702416
 H         7.1888279896        1.9953160674       -0.9530375191
 H         5.6097184827        4.1346663280        1.8797611582
 H         6.5424672356        5.1951398731        0.9367655563
 H         4.9467865880        5.3510422516        0.8301768194
 H         2.0964608010        1.5604438784       -1.0370863713
 H         1.0553006873        2.8750284506       -0.5987868190
 H         0.1355458940        1.0244127290        3.4150895102
 H        -1.5870312033        0.6504660367        2.7626348802
 H         1.7895333260       -0.9101277821       -0.2501885479
 H         2.8430947841       -1.5433950626        1.2383810246
 H         3.3627823386       -0.2694168107        0.0838122358
 H         2.3093365261        0.5522212772        3.7920830650
 H         1.9132007791       -1.1516737825        3.3272479301
 H         3.3311509820       -0.4725362536        2.8848006904
 H        -1.1773718727       -1.6418270351        3.4640860513
 H         0.3368412607       -1.2485862990        4.3060305669
 H        -4.3212138188       -1.2835147514        6.5132721902
 H        -3.5221899117       -0.5384186886        5.0508929263
 H        -0.6555308757       -2.8004348252        7.7360196290
 H         0.4779539273       -1.5392123271        7.0646809606
 H         0.0074014244       -2.8675563449        6.1784994203
 H        -1.2358453541        0.1446594440        8.0848695565
 H        -2.7377982828        0.2440682048        7.3038193658
 H        -2.5145968595       -1.1964587250        8.3103269671
 H        -5.8965820027       -1.8590630509        4.7308565426
 H        -5.0613769311       -3.2671288578        5.1113046363
 H        -6.0568023760       -5.4235514608        0.7204078005
 H        -6.6939555105       -4.5854861127        2.0019136423
 H        -2.1407555813       -4.1823270895        3.2953193385
 H        -2.0715245816       -3.2414449659        1.8946723819
 H        -2.5533852695       -5.0042340917        1.7268941363
 H        -4.2884391440       -5.8841387760        2.7342876181
 H        -4.0172353343       -5.0384617437        4.2880509633
 H        -5.6102592026       -5.0835437370        3.5666229075
 H        -7.2403927925       -4.1609592180       -1.0063301045
 H        -8.2880561770       -4.4602715595        0.2356844300
 H        -7.5707580589        1.1180515241       -0.8511213162
 H        -6.2268345347        0.1108421198       -0.1282945862
 H       -10.5918027868       -2.5573666765       -1.0225492342
 H        -9.1544179704       -3.3338492777       -1.6226863711
 H        -9.6188594633       -1.8173630223       -2.2803796833
 H        -9.8646988104        0.3384532030       -0.0692024590
 H        -9.9853394939       -0.9683677809        1.0469524676
 H        -8.6083098161       -0.0081149098        1.0833287495
 H        -5.5649276418        1.8434732782       -1.8951343687
 H        -6.0706581412        0.8036073347       -3.1416747577
 H        -2.5756816351       -2.7954978924       -2.9942136338
 H        -1.6716404181       -2.1282365029       -4.3509526273
 H        -3.7245498374       -1.5205938589       -4.9564407568
 H        -5.1906654014       -0.5279803679       -4.7434150258
 H        -4.8892344609       -1.7941677500       -3.7770728842
 H        -2.9955581096        1.1279451135       -4.9407621784
 H        -4.1053596055        2.0550004554       -3.9641612460
 H        -2.3878272543        1.7274711152       -3.5287953306
 H         0.2613605279       -2.8571924891       -3.3830710189
 H        -0.0323890618       -1.6479219212       -2.1253750455
 H        -1.6794916825       -4.8951366505       -4.0097349263
 H        -0.2701484046       -4.6341220865       -5.0809360274
 H        -1.0991164774       -6.3007432929       -4.7620837109
 H         1.8176685331       -4.7688580875       -1.1067529624
 H         1.1184306865       -6.1771134324       -0.5163751955
 H         0.7600244996       -4.7112348431        0.2746747212
 H        -0.8860024291       -7.0999769397       -1.2816813744
 H        -1.9042367524       -5.8100327165       -0.6073981992
 H        -2.0530553069       -6.2317320489       -2.2262958742
 Na       -2.5271216293       -1.3018445390        0.4688825246
