155

 C         8.2721835307        9.0161286975       -6.3361863846
 C         7.7501167738        8.5642216231       -5.0334053123
 C         8.6364831233        7.4149187740       -4.3696133628
 C         8.1430660645        6.6660735334       -3.0549775754
 C         6.7982966852        6.0143572501       -2.9540680226
 C         8.8920514675        6.2963417762       -5.4368621582
 C        10.0953802855        7.9736538351       -4.0442954543
 O         6.8478518787        9.0518430588       -4.4494816147
 O         8.9518827134        6.5055495438       -2.1730535439
 C         6.3653184677        5.7268176742       -1.4691548339
 C         5.5022253642        4.4718930389       -1.2871877228
 C         5.4471193169        3.8445826009        0.1636321930
 C         4.5020208017        2.5679942840        0.1656575984
 C         3.0571365158        2.8830516619       -0.5162756081
 O         5.0162746456        3.8417430739       -2.2315264081
 O         4.7611971397        1.5329678008        0.6747016139
 C         6.9039460015        3.3132655062        0.3755249219
 C         5.1492591762        4.8160761816        1.3190427528
 C         2.0088413148        1.8454931484       -0.2031317862
 C         2.1165788616        1.4683052873        1.3162444832
 C         1.9924263242       -0.1016347682        1.8432939136
 C         0.2956080183       -0.3175395178        1.7446183580
 C        -0.5545020651        0.2270211264        2.8627460042
 C         2.7605074510       -1.2121229967        0.9886064393
 C         2.3980762644       -0.1810643171        3.2808831239
 O         2.0459416642        2.4622929232        1.9913438080
 O        -0.1605349095       -0.8636701695        0.6904416154
 C        -0.8474751354       -0.7593640983        3.9504614890
 C        -1.2894716842       -0.0315527955        5.3454565043
 C        -1.7024237256       -1.1115321322        6.4479571490
 C        -2.9751168629       -1.9838389090        5.8186034960
 C        -4.3098641062       -1.2858174496        5.3984546468
 O        -1.2864303942        1.1332913399        5.4919543164
 O        -2.7352642088       -3.1386375019        5.6645312632
 C        -0.5185027376       -2.0837461236        6.5420267302
 C        -2.2106658270       -0.4370188026        7.7467750266
 C        -5.0731306099       -2.1288043644        4.3335238699
 C        -4.1579026226       -2.3210705511        3.0757035751
 C        -3.9904631550       -3.8556471178        2.5195122674
 C        -4.7639194132       -3.8250181091        1.1275227352
 C        -6.0943871568       -4.5194020176        0.9057703105
 C        -2.4611727455       -3.9869610115        2.3349000759
 C        -4.5265073204       -5.0019693033        3.3747581105
 O        -3.5874751757       -1.4398782182        2.5440334851
 O        -4.2779878773       -3.2153665819        0.1835375704
 C        -6.9498261708       -3.7741494412       -0.1681463164
 C        -7.4157658892       -2.4683781302        0.4521741547
 C        -8.2835986574       -1.4771279897       -0.5745692030
 C        -7.2498975670       -0.9749805153       -1.4868608085
 C        -6.8319075387        0.5630232020       -1.4332873236
 O        -7.3913818795       -2.1124760423        1.6207027156
 O        -6.6683621435       -1.7772222554       -2.2437512989
 C        -9.3188555118       -2.4007915777       -1.4467196468
 C        -9.1214718915       -0.4807364767        0.2394467843
 C        -5.6679622984        0.9181368556       -2.3920040711
 C        -4.3671962057        0.0916982896       -2.2367636618
 C        -3.4847695393       -0.0356575939       -3.4425133123
 C        -2.0990728262       -0.7030136386       -2.8748765015
 C        -1.7442252790       -2.2170944067       -3.1645268295
 C        -4.1019053848       -0.8324352366       -4.5704558539
 C        -3.0366807191        1.4334498083       -3.8533724782
 O        -4.0854555799       -0.4232809298       -1.1268082052
 O        -1.3473040186        0.0036062228       -2.2181962235
 C        -0.4517027033       -2.6071766680       -2.4705873924
 C        -0.7885765025       -3.7764765807       -1.5567981021
 C        -0.2532942253       -5.2411492037       -1.7840541196
 C         0.0254080090       -5.4764664404       -3.3034915081
 C        -1.2580963463       -5.9268941997       -4.0610968370
 O        -1.5067572361       -3.5204955049       -0.6052475336
 O         1.0971358384       -5.4917964938       -3.8274428894
 C         1.1496895262       -5.4460373205       -1.0528228957
 C        -1.3607074357       -6.2689815475       -1.2523185324
 H         9.2215734884        9.4554006120       -6.2425576001
 H         8.3905415155        8.1326630867       -6.9293903206
 H         7.6623331464        9.8071246441       -6.7408317530
 H         5.9607839659        6.5271070633       -3.5113478758
 H         6.8627507036        5.1239191033       -3.5208649900
 H         9.7024770944        5.5971511049       -5.1670052364
 H         9.1459517285        6.6795813156       -6.3777320280
 H         7.9062665142        5.7861750904       -5.5135053623
 H        10.1690130186        8.7134540438       -3.2705753046
 H        10.7002535346        7.1724463356       -3.6222357034
 H        10.5676798853        8.2002634421       -4.9928331810
 H         7.1046183073        5.8201237765       -0.6862392579
 H         5.6583007071        6.5105678885       -1.1381387465
 H         2.6068014216        3.8774026707       -0.2843896062
 H         3.2074295098        2.9098293795       -1.5948464916
 H         6.9392890648        2.6713783267        1.1800190656
 H         7.6818385865        4.0765056313        0.5011483649
 H         7.2213344592        2.8337046653       -0.5133944191
 H         5.0613705647        4.4954301947        2.3402658165
 H         5.9935265647        5.5103373672        1.2795032848
 H         4.1827603177        5.3290025016        1.3308078205
 H         2.2171401036        0.9718214311       -0.7977959726
 H         1.0047979835        2.2923947115       -0.3922632799
 H        -0.1328752759        1.1393213742        3.2510835695
 H        -1.4508499923        0.3915804997        2.3210534927
 H         2.6427151860       -1.0466992562       -0.0880409133
 H         2.3065144347       -2.3118900772        1.0812639382
 H         3.8628826643       -1.2890128312        1.2420390203
 H         1.7230646163        0.3090178887        3.9693683676
 H         2.4488627852       -1.2321420536        3.6571375747
 H         3.2623994958        0.3865792708        3.4964146163
 H        -1.7606807839       -1.3448429170        3.6259661639
 H        -0.0255682305       -1.4030118145        4.0801264489
 H        -4.8354323592       -1.2434356062        6.3364838433
 H        -4.0805740973       -0.2740997691        5.0520904671
 H        -0.6656715177       -2.8268341592        7.2329248650
 H         0.4084582885       -1.4816573867        6.7813177446
 H        -0.3740227484       -2.5868462501        5.6278093758
 H        -1.5540248862        0.2885997393        8.2602787870
 H        -3.0810936878        0.1560577894        7.5508393919
 H        -2.4963134320       -1.2383430267        8.3996928070
 H        -5.9324188277       -1.6073385743        3.9879645395
 H        -5.3324587544       -3.0875488305        4.7954781895
 H        -5.7764515268       -5.4401009211        0.5016132458
 H        -6.6459580165       -4.8343306669        1.8129887477
 H        -2.0827935629       -4.0280919490        3.3171930561
 H        -2.0394358065       -3.1816089011        1.8002260553
 H        -2.1305742937       -4.8923898051        1.7806656902
 H        -4.0665307865       -5.9415769326        2.9574183674
 H        -4.0652217736       -4.9517929263        4.3172235736
 H        -5.5900273704       -5.1049689306        3.3398361876
 H        -6.6505052796       -3.6196331308       -1.2348589926
 H        -7.9633346865       -4.2911230809       -0.3750349866
 H        -7.7537877085        1.1630374899       -1.6223424071
 H        -6.6645142906        0.7503621617       -0.3520038345
 H        -8.8909952936       -2.6885289429       -2.4168607662
 H       -10.2323287561       -1.7721532624       -1.4391300587
 H        -9.6908312478       -3.3347863888       -1.0245369091
 H        -9.4044374345        0.4690906092       -0.2447433427
 H        -9.9693584990       -0.9696359779        0.6607382147
 H        -8.5902560578       -0.0943061826        1.1208141075
 H        -5.3702836144        1.9001323913       -2.3423345233
 H        -5.9701234346        0.8055311805       -3.3919332928
 H        -2.5185016985       -3.0233688206       -3.0119835783
 H        -1.5519282649       -2.1942238582       -4.2310594746
 H        -3.4538219712       -1.2547737585       -5.2909371085
 H        -4.8256782949       -0.2293278825       -5.0577753705
 H        -4.5929209700       -1.7226911841       -4.2541056450
 H        -2.1021995646        1.3883350539       -4.4596551961
 H        -3.7704070046        1.8514757716       -4.5126645623
 H        -2.9995377974        2.1540964948       -3.0576149430
 H         0.3487290208       -2.8349851788       -3.1265891385
 H        -0.1371160369       -1.7204569194       -1.8938496756
 H        -2.0907581865       -5.3678493334       -3.6490072189
 H        -1.1318178731       -5.6349468955       -5.1329035881
 H        -1.4099650340       -7.0168808654       -4.0667267323
 H         1.9350521645       -4.6869150156       -1.2645284716
 H         1.6764717075       -6.3029689312       -1.4356950337
 H         1.1523062835       -5.7609220498       -0.0032206753
 H        -1.1551124941       -7.3159941139       -1.5056271723
 H        -1.3816783552       -6.2112578569       -0.1895636825
 H        -2.3960488991       -6.0351273812       -1.4953567025
 Na       -2.4747581421       -1.6160228071        0.1731619815
