155

 C         8.2425473233        9.3064534535       -6.2341397892
 C         7.8145977055        8.5628205681       -4.9524498366
 C         8.6788804093        7.3525297813       -4.4348929872
 C         8.1523382204        6.8228182733       -3.0479403119
 C         6.6958463628        6.2442031677       -2.8214856340
 C         8.6123147811        6.0490703923       -5.3686870379
 C        10.0893544621        7.9132674841       -4.1459984766
 O         6.7461238895        8.9156071459       -4.4192241518
 O         8.7647930466        6.8887712557       -1.9962445758
 C         6.3676368958        5.8658947628       -1.3895944519
 C         5.5923237792        4.4993076152       -1.2724579196
 C         5.4281877800        3.8998870641        0.1337628964
 C         4.3536601115        2.7384496131        0.1868529087
 C         2.9553785715        2.8605927339       -0.4877391661
 O         5.0280905100        4.0901493868       -2.2927014208
 O         4.6397977145        1.7575647412        0.9232045933
 C         6.7643919892        3.3121161168        0.6971402256
 C         4.8422412473        5.0413757147        1.0258199787
 C         2.2741418642        1.4404851341       -0.1864408312
 C         2.0985057818        1.2543778411        1.3013754904
 C         1.8073234218       -0.3189670922        1.8303313043
 C         0.3298485573       -0.4840545766        1.6958391107
 C        -0.6283450149        0.3792788442        2.7012755282
 C         2.6761974213       -1.1939383385        0.9806156375
 C         2.2916533482       -0.1520363509        3.3256568426
 O         2.0772247027        2.1890383693        2.0656675092
 O        -0.1039917944       -1.3135103976        0.9382959398
 C        -0.8837356777       -0.5580742403        3.9355507689
 C        -1.3859919681        0.0025744713        5.2638205683
 C        -1.8646759522       -1.1130178176        6.3467037544
 C        -3.0552404664       -1.9072162510        5.7973414309
 C        -4.3727682182       -1.1098012052        5.3393440319
 O        -1.2699476626        1.1508225700        5.6216012346
 O        -3.1357121302       -3.1431886657        5.6685699661
 C        -0.7093991958       -2.1004254345        6.7831105863
 C        -2.2782450137       -0.2955930935        7.6561211237
 C        -5.0264437635       -1.8987730726        4.1322148176
 C        -3.9752327007       -2.3850501535        3.0430372531
 C        -3.9292140814       -3.8749884400        2.4884776845
 C        -4.6270892113       -3.7844370618        1.0388426373
 C        -5.8993732060       -4.5357401918        0.7848862308
 C        -2.4485523263       -4.3062968933        2.3805602283
 C        -4.5509372148       -4.8400909225        3.5570055224
 O        -3.1994306531       -1.5068332484        2.5638703599
 O        -4.0335867805       -3.2381227827        0.1598398514
 C        -6.9086479548       -3.8827895087       -0.0937710641
 C        -7.3934552963       -2.4807207739        0.4208349918
 C        -8.1856732041       -1.5903255475       -0.6194841687
 C        -7.1021859108       -0.9351210352       -1.6062973210
 C        -6.8422731707        0.5961886216       -1.5892883154
 O        -7.1820305333       -2.2004924287        1.6036787016
 O        -6.4563043800       -1.6468335777       -2.3762488288
 C        -9.2002926888       -2.3093577434       -1.5787269342
 C        -8.8641265887       -0.4519893373        0.1649413281
 C        -5.7190494960        0.8775073155       -2.5383446536
 C        -4.3980078467        0.0765256202       -2.1905485241
 C        -3.3248979804       -0.0922624793       -3.4202364510
 C        -1.9941906464       -0.7533094301       -2.8295143965
 C        -1.6317024484       -2.1876981510       -3.2963153409
 C        -3.9975277987       -0.7407759760       -4.6524864849
 C        -2.9294239450        1.3934719504       -3.8018455531
 O        -4.2241747515       -0.3716002543       -1.1129429855
 O        -1.2708296659       -0.0930774645       -2.1059755824
 C        -0.4634971911       -2.7653793953       -2.4355927911
 C        -0.8722866125       -3.9332986262       -1.5965277147
 C        -0.2267508576       -5.3841189133       -1.8722491652
 C        -0.2548672319       -5.5560835625       -3.4352197623
 C        -1.4738226954       -6.0960897900       -4.1145304080
 O        -1.4668687922       -3.7883056025       -0.5418727017
 O         0.7465752552       -5.3191222364       -4.0721214882
 C         1.1764098973       -5.3308716770       -1.2477534574
 C        -1.1225690051       -6.3725458373       -1.0675365285
 H         9.2428754167        9.7287715129       -6.0778059889
 H         8.3821006813        8.6027684087       -7.0636738687
 H         7.6893737105       10.1916510740       -6.3405195691
 H         6.1205297735        7.0785416649       -3.1232622404
 H         6.2564687993        5.4741979212       -3.5279459386
 H         9.3903879709        5.4330930844       -5.0088314876
 H         8.8367660729        6.2278354002       -6.4383353930
 H         7.6526016080        5.6077409890       -5.2020978024
 H         9.8979402028        8.6486251962       -3.3643424192
 H        10.7311332038        7.2487698637       -3.5918439914
 H        10.6682690239        8.2756885492       -4.9955468202
 H         7.2762676652        5.8036129346       -0.7995341463
 H         5.8810763776        6.6283087581       -0.8136221216
 H         2.4067406591        3.7159068568       -0.1325414468
 H         3.1519683252        3.0506787576       -1.5399182850
 H         6.5919986915        2.9257108364        1.7540849372
 H         7.4937647843        4.0642103028        0.7630744415
 H         7.2412928422        2.5671992714        0.0591210913
 H         4.5471395581        4.6264793210        1.9918789043
 H         5.4524149026        5.8617524164        1.3076658921
 H         3.8585746098        5.2434661437        0.7476222591
 H         3.0713732495        0.6885698006       -0.4400194751
 H         1.3076974915        1.2488181094       -0.6504709129
 H        -0.0499549472        1.2812860737        3.0737513396
 H        -1.5733903139        0.6930385943        2.1329295915
 H         2.2673382950       -1.4561901734       -0.0281445177
 H         2.6801587036       -2.1573165360        1.4147886414
 H         3.7008986384       -0.8441830233        1.0157493556
 H         2.2076327781        0.7839472527        3.8410340299
 H         1.7443007462       -0.7743887364        3.9938081341
 H         3.3623876966       -0.3393171580        3.3533887448
 H        -1.5838443467       -1.3483794410        3.7842989982
 H         0.1503963128       -0.9857246250        4.1828791365
 H        -5.1621677003       -1.0055219942        6.1541385327
 H        -4.0450730185       -0.0930100917        4.9678773912
 H        -0.7878080335       -2.3988955742        7.8830141573
 H         0.2547270923       -1.6565358838        6.7726481242
 H        -0.7717267753       -3.0518724775        6.2420579355
 H        -1.3462064828       -0.0829092536        8.1864073780
 H        -2.7307226834        0.7101065596        7.4444812853
 H        -2.9142941852       -0.8434034809        8.3784188951
 H        -5.7213880575       -1.2143929307        3.5410232165
 H        -5.4557114732       -2.7827529811        4.5923117040
 H        -5.7521046740       -5.5930681444        0.4174580857
 H        -6.3399319043       -4.6292451764        1.7813797508
 H        -1.9628056318       -4.4949493392        3.3743851229
 H        -1.8701814648       -3.6546827254        1.6913736848
 H        -2.4018993557       -5.2813830169        1.8595044174
 H        -4.6595112323       -5.8383180079        3.2241142606
 H        -3.8927625769       -4.8319418333        4.4546460838
 H        -5.5452482645       -4.4855464713        3.7759465657
 H        -6.6347005841       -3.9140884871       -1.1233850191
 H        -7.7890710488       -4.4492829935       -0.1352325090
 H        -7.8106244815        1.0464587675       -1.7971128286
 H        -6.6425606760        0.9692164998       -0.5928627889
 H        -9.1530968830       -3.3543454035       -1.3141642906
 H        -9.2018510622       -2.0249137787       -2.6274579021
 H       -10.1747826637       -1.9490608648       -1.2376644559
 H        -9.4014622554        0.2543233531       -0.4315553576
 H        -9.6063122917       -0.8718852574        0.8679226185
 H        -8.2296030963        0.1540157614        0.7557999378
 H        -5.5409287486        2.0247346028       -2.5058155009
 H        -5.8763739005        0.7176176082       -3.6370334292
 H        -2.4907336322       -2.8191869649       -3.1939000015
 H        -1.3783137189       -2.2911971532       -4.3756830300
 H        -3.3103439866       -1.2043329375       -5.4278398800
 H        -4.5588324118       -0.0225756133       -5.2713073201
 H        -4.5664340810       -1.6244971705       -4.4353572748
 H        -2.3464430084        1.3616449285       -4.6865633025
 H        -3.8648617654        1.9536385854       -4.0456871819
 H        -2.5481191108        2.0049593625       -2.9722631592
 H         0.4246738633       -3.0179361628       -3.0718199707
 H        -0.0824131653       -2.0271322765       -1.7142901858
 H        -2.3340713716       -5.4163045212       -4.1813062657
 H        -1.2220227877       -6.4460778810       -5.0928817082
 H        -1.6739950712       -7.0524843993       -3.6007056672
 H         1.8810851872       -4.8192809557       -1.8353669346
 H         1.6491924958       -6.2850254820       -1.0255911713
 H         1.1837125758       -4.9787477440       -0.2600323063
 H        -0.8795385465       -7.3952945759       -1.2615614900
 H        -0.9399731071       -6.3353796112        0.0306916845
 H        -2.1962366868       -6.2376595863       -1.2563724607
 Na       -2.2873588735       -1.5426192290        0.2426341878
