155

 C         8.2556228314        9.9545670429       -4.8625238945
 C         7.4966443792        8.6540952116       -4.9003752099
 C         8.1221383848        7.3830544378       -4.2636366442
 C         7.6883665322        7.3116402348       -2.7159483449
 C         6.6752635506        6.2720976100       -2.2942293951
 C         7.5560701729        6.1423692161       -5.0793745452
 C         9.6711506587        7.4180772784       -4.3570996150
 O         6.2876910426        8.6376820134       -5.1469103453
 O         8.2546549045        8.0725361765       -1.9810901569
 C         6.4190177834        6.1625020843       -0.7938948369
 C         5.3159369351        4.9680090459       -0.7062038713
 C         4.6828130706        4.5398529631        0.6591277788
 C         4.4100983015        3.0576268970        0.6648172598
 C         3.2386208765        2.5482433384       -0.1769747827
 O         4.9244405634        4.4327629198       -1.7266184181
 O         5.1849565612        2.2547624894        1.2558316954
 C         5.6634821107        5.0199549637        1.7618961133
 C         3.3102946831        5.3966662810        0.8284651108
 C         3.0458440930        0.9956632935       -0.0723703492
 C         1.9076582583        0.7012720826        1.0049024921
 C         2.0244662473       -0.6375642635        1.8443660747
 C         0.5659564851       -1.0136119481        2.2658401468
 C        -0.3515777002       -0.1559391460        3.1387409692
 C         2.6059871503       -1.7771720974        1.0813154869
 C         2.9520129208       -0.3985501802        3.1105513764
 O         1.0900511477        1.5312042335        1.3930765509
 O         0.0915564711       -2.0162508569        1.7504801866
 C        -0.4123226380       -0.7642749616        4.4953713250
 C        -1.3244168783        0.1702288919        5.2613528012
 C        -2.3898982828       -0.4942657692        6.2468163808
 C        -3.3472912918       -1.3634025226        5.4488138973
 C        -4.2844000754       -0.4991647902        4.6124689146
 O        -1.1987074304        1.3757970979        5.2012239245
 O        -3.4517130227       -2.5718625273        5.4662224018
 C        -1.5772139113       -1.3670982597        7.2223056847
 C        -3.0852650746        0.6736651673        6.9204259883
 C        -5.1776052673       -1.3894504840        3.7154703542
 C        -4.3487098797       -2.1691874835        2.6142810553
 C        -4.4183219748       -3.7048441952        2.4356986048
 C        -4.7072961582       -3.8920846100        0.9260095068
 C        -5.7993469804       -4.7866218117        0.3806154203
 C        -3.0018226357       -4.3430015106        2.7171655116
 C        -5.4640587676       -4.3905532349        3.3435952385
 O        -3.5392571351       -1.4952029011        2.0315279699
 O        -3.9620345318       -3.4510953000        0.0121954923
 C        -6.6587296468       -4.0829201702       -0.6519175338
 C        -7.0337837680       -2.6588782639       -0.1294080272
 C        -7.9364052624       -1.6538018965       -0.9336184574
 C        -6.7795819623       -1.0308603600       -1.7815549225
 C        -6.1493383112        0.2477820147       -1.1945111337
 O        -6.5422444434       -2.2403129961        0.8938714619
 O        -6.3457457894       -1.5251797552       -2.8004877545
 C        -8.9211953835       -2.3981994053       -1.8171880108
 C        -8.7351881334       -0.5194218396       -0.1164484961
 C        -4.9514969307        0.6666144391       -2.0534741276
 C        -3.6501511316       -0.1209516958       -1.8957722716
 C        -2.5409161640       -0.1392136168       -2.9728132730
 C        -1.3172436593       -0.9838184394       -2.4856731962
 C        -0.7945519387       -2.0971596691       -3.3937374686
 C        -3.1825433574       -0.7201328402       -4.2741213538
 C        -1.8720089349        1.2821472422       -3.1325093622
 O        -3.4815206131       -0.7911778567       -0.8884515212
 O        -0.6310542585       -0.6204822049       -1.5821987410
 C         0.3669810307       -2.8704749707       -2.7852970670
 C        -0.1479567197       -4.0823389229       -1.9327961111
 C        -0.0497194679       -5.5867282504       -2.4723942195
 C        -1.2277810891       -6.0336536302       -3.5037235388
 C        -1.8842519358       -7.3148655676       -3.2915226274
 O        -0.7726918237       -3.9792948765       -0.9424278172
 O        -1.4087453024       -5.2350380023       -4.4200906554
 C         1.2793428767       -5.7775738722       -3.2514579669
 C        -0.0067060956       -6.5042747218       -1.2467285897
 H         8.7239771886       10.1180815496       -3.9022566730
 H         8.9579929300        9.9981790468       -5.6550681884
 H         7.5813733027       10.7059405375       -5.1492852219
 H         5.6839008914        6.3065311051       -2.7853118049
 H         7.2019265795        5.3778990389       -2.4876397365
 H         7.8940961706        5.1767954973       -4.6260859872
 H         7.9637767652        6.1978989179       -6.0903069574
 H         6.5122347696        6.1656217513       -5.1587387878
 H        10.2092743723        7.9793499314       -3.5694747968
 H         9.9491467168        6.3581515255       -4.1603394995
 H        10.1642852658        7.7060529435       -5.2525633526
 H         7.3240740280        5.9075030688       -0.2049446942
 H         5.8911840097        7.0873840411       -0.4634021581
 H         2.4620424948        3.0378108634        0.3762013560
 H         3.1248529718        2.9638104996       -1.2029740887
 H         5.0815652180        5.3227538057        2.6530664244
 H         6.3110481135        5.8142947128        1.5419733716
 H         6.2721287703        4.1708615326        2.0181130656
 H         2.7951937094        4.9071186480        1.6060548701
 H         3.5430667378        6.4400017182        1.0523412027
 H         2.7312060961        5.4735978373       -0.1142456227
 H         3.9687238564        0.5837370855        0.2965373102
 H         2.7601732988        0.3722014758       -0.9358075776
 H         0.0317648369        0.9290464714        3.0730949495
 H        -1.3445995889       -0.1240247440        2.6553980306
 H         2.5006046605       -2.6255131333        1.7029422297
 H         3.5051335799       -1.3733200622        0.8737973470
 H         2.0121003926       -2.0026155201        0.2488052750
 H         2.4843045446        0.2711196891        3.8421621264
 H         3.2134770219       -1.3417466476        3.5129366087
 H         3.9697125177        0.0291241973        2.8552428454
 H        -0.8788913115       -1.8030993319        4.2769108467
 H         0.5952422612       -1.0318884446        4.8801754691
 H        -4.9418640654        0.2415162973        5.1256227830
 H        -3.7332760672        0.1806761183        3.9862116436
 H        -2.3238033424       -1.6795876717        8.0179063979
 H        -0.6861551395       -0.9437670937        7.5486724896
 H        -1.2373726079       -2.3511058218        6.8200424776
 H        -2.3422385009        1.2140363586        7.5114601788
 H        -3.4667428760        1.4381783752        6.2818263895
 H        -3.9133373753        0.2800210810        7.5574866923
 H        -6.1060944689       -0.8268629275        3.3819818679
 H        -5.6449822353       -2.1242003135        4.4334976484
 H        -5.3555423345       -5.7828861781       -0.0897138701
 H        -6.4507609810       -4.9934260417        1.2039607084
 H        -2.7077856511       -4.0559032681        3.7697675866
 H        -2.1889395458       -3.8152676430        2.1792505702
 H        -2.8940910150       -5.3601323259        2.5017676163
 H        -5.6061820192       -5.3981798508        3.1392401235
 H        -5.1977931635       -4.4073931930        4.3791570160
 H        -6.4534644108       -3.8819602332        3.2558287390
 H        -6.1397672816       -3.7899689584       -1.5181017270
 H        -7.4446465803       -4.7531416891       -0.9528157969
 H        -6.9053709650        0.9835404572       -1.2938345321
 H        -5.9982256279        0.0169780931       -0.1273657420
 H        -9.7861714012       -2.4563028828       -1.1895702771
 H        -8.4987733020       -3.2165647959       -2.3183739342
 H        -9.1350523042       -1.6908307583       -2.5960326138
 H        -9.1094378424        0.1650570128       -0.8242827702
 H        -9.5892477111       -0.7631201830        0.4827268827
 H        -8.1229260186        0.0686826894        0.5977843193
 H        -4.5955373250        1.7269163992       -1.6833560261
 H        -5.2713453175        0.6875482111       -3.1582820991
 H        -1.7005978820       -2.7358134874       -3.3805967069
 H        -0.6302163553       -1.9091607652       -4.4327153076
 H        -2.4373326002       -0.7491463556       -5.0519270807
 H        -4.0476902114       -0.1497336343       -4.6337290504
 H        -3.6231345749       -1.7045086205       -4.2004080738
 H        -0.9827829457        1.3120154315       -3.7390658252
 H        -2.6543804185        1.9042882616       -3.5141868485
 H        -1.4883859807        1.4912817643       -2.1318156606
 H         0.9025505369       -3.2043327426       -3.7319096658
 H         1.0174396411       -2.2365421261       -2.1691249545
 H        -1.5603367758       -7.8437198130       -2.3570519122
 H        -2.9567653313       -7.1711495182       -3.3138548203
 H        -1.6523997993       -8.0604357780       -4.0412803094
 H         1.2494167723       -5.5701759331       -4.2852455329
 H         1.6497903967       -6.7852277401       -3.2395426507
 H         2.0237426246       -5.0449479887       -2.9154893324
 H         0.1652888058       -7.5338931311       -1.6077489519
 H         0.7151631793       -6.1741721142       -0.5178593070
 H        -0.9017485542       -6.4709290173       -0.7093677782
 Na       -2.0482173693       -2.2268880199        0.2170598938
