155

 C         7.6133154999       10.0276716410       -3.7821234994
 C         7.2495408811        8.8332974777       -4.6023044993
 C         8.0280316084        7.5019474099       -4.1721599609
 C         7.5918667550        7.0564180000       -2.7329249177
 C         6.5647177756        6.0437502288       -2.4665550040
 C         7.7681022165        6.4958338459       -5.2989385634
 C         9.5303155494        7.8343909095       -4.1141326513
 O         6.3672310478        8.8575181637       -5.4646669434
 O         8.0539220262        7.6856492300       -1.7810565696
 C         5.7716424527        6.3052283884       -1.0458462692
 C         4.7993846369        5.1914194615       -0.7752536447
 C         4.3523431085        5.0848288608        0.7523480460
 C         4.4405724138        3.5537151789        1.0782901433
 C         3.5267771631        2.5931734133        0.3284553078
 O         4.3504793469        4.5436929043       -1.6810515664
 O         5.0889361288        3.2472090470        2.0806460028
 C         5.0656523234        5.8549831138        1.8270467933
 C         2.8880820667        5.4627664832        0.8290520827
 C         3.5807549543        1.1406373446        0.8181980617
 C         2.1617080418        0.3754955846        0.9534775039
 C         2.0070191606       -0.9196979635        1.8304380181
 C         0.5028015911       -1.1573076649        2.1309671312
 C        -0.4775172707       -0.1830012700        2.7963893381
 C         2.5729759839       -2.2652275658        1.1939221698
 C         2.7190879467       -0.6020347188        3.2249189350
 O         1.2557474174        0.8494760165        0.2866853388
 O        -0.0054308823       -2.2422125976        1.8166190535
 C        -0.5499115623       -0.6889560537        4.2719047721
 C        -1.4397498377        0.2812608233        5.0598950801
 C        -2.6693128344       -0.2860568922        5.8673187414
 C        -3.6430170396       -1.2166755403        5.1701775880
 C        -4.6400733097       -0.4359853214        4.2812501684
 O        -1.1720034448        1.4883651219        4.9166177536
 O        -3.6982949770       -2.4155632969        5.2993710471
 C        -2.0126515168       -0.9734433129        7.0181889102
 C        -3.3376714168        1.0053390797        6.4293908907
 C        -5.1581347725       -1.4166116324        3.2272766337
 C        -4.0937472369       -2.3341647243        2.6544697705
 C        -4.2898079896       -3.8481967770        2.6019531813
 C        -4.4480147915       -4.2205272216        1.0254584614
 C        -5.7698000306       -4.6343125849        0.4116547809
 C        -3.0189418018       -4.4526986115        3.1599911631
 C        -5.5057877913       -4.2750481001        3.3964085327
 O        -2.9995785776       -1.7804399628        2.3265751305
 O        -3.4954150918       -4.2328914701        0.2981617657
 C        -6.2166499796       -3.6409855485       -0.7505222090
 C        -7.1322127138       -2.4908680661       -0.2111213405
 C        -7.6807269760       -1.4700631103       -1.3496777256
 C        -6.6353612852       -0.5582446996       -2.0002950806
 C        -5.7042373249        0.2206781917       -0.9646165716
 O        -7.5627946211       -2.3850675674        0.8995470390
 O        -6.3083242237       -0.7274018712       -3.1050926357
 C        -8.4436858681       -2.2671593295       -2.4503596680
 C        -8.7093815103       -0.5558706747       -0.6395207160
 C        -4.4851465902        0.7649695868       -1.6665617368
 C        -3.3675215762       -0.3186663678       -1.6805847915
 C        -2.1826020030       -0.2601920273       -2.7504392901
 C        -0.9406275105       -1.2879292766       -2.4400606034
 C        -0.3822169742       -2.1270976702       -3.5506583446
 C        -2.8062279246       -0.4554839241       -4.1691603392
 C        -1.3809713971        1.1438353893       -2.6638647475
 O        -3.5279358943       -1.2566807218       -0.9524276363
 O        -0.5131049757       -1.3504519242       -1.3219050049
 C         0.7242849657       -3.0826940598       -3.0687096908
 C         0.1971824642       -4.3327395633       -2.2467247438
 C         0.1622001702       -5.8046284273       -2.7747332108
 C        -1.4882591443       -6.0212367732       -2.9418714202
 C        -1.9894873163       -7.4084757656       -3.1310930209
 O        -0.2242979272       -4.0675825019       -1.1276155367
 O        -2.1862657507       -5.0356087369       -3.1119631014
 C         0.9037224029       -6.0294034213       -4.1387536962
 C         0.5709181444       -6.7845463824       -1.6180174732
 H         7.6473907996        9.6866781369       -2.7360430774
 H         8.5634896652       10.4963542699       -4.0087725154
 H         6.7318868157       10.7149049234       -3.8179162485
 H         5.8532697160        6.0659620495       -3.2921113112
 H         7.1631339825        5.0927077327       -2.4952089867
 H         8.1357883801        5.5271156956       -5.0159542163
 H         8.1900792700        6.7439826947       -6.2342369053
 H         6.6662778500        6.3512055496       -5.3518492054
 H         9.7756740106        8.4077574015       -3.2366239388
 H        10.2146991959        6.9969833624       -4.0826394860
 H         9.8784524923        8.3936711863       -5.0061605238
 H         6.4049798036        6.3120349506       -0.1477825409
 H         5.2443809594        7.3060251405       -1.1979629371
 H         2.4139295921        2.8889621186        0.4554312390
 H         3.6822872213        2.8364325651       -0.7110650511
 H         4.6009096010        5.5474999483        2.7156952733
 H         5.0235736085        6.9763238539        1.6522302589
 H         6.1367122382        5.6138401500        1.9203387016
 H         2.5566609391        5.0603756148        1.7457932469
 H         2.7915422771        6.5202306937        0.9367318260
 H         2.3804858502        4.8779003049        0.0838469764
 H         4.2102514112        1.0418589859        1.7013266157
 H         4.0970512309        0.5801843625        0.0796203241
 H        -0.2145681329        0.8421644308        2.8547311911
 H        -1.4965220151       -0.2589099038        2.3575495012
 H         2.8291324148       -2.9088753824        1.9706629162
 H         3.4366788345       -2.0383728077        0.6622042268
 H         1.8014086056       -2.5194705450        0.4781388798
 H         2.6020277666        0.4427208923        3.5315852030
 H         2.4650418430       -1.2923353834        4.0542785355
 H         3.7584882264       -0.6113754097        3.0117461801
 H        -0.7110773790       -1.7692157294        4.3348223593
 H         0.3890546815       -0.4510274344        4.8192223397
 H        -5.4307286225       -0.0623427293        4.8454671139
 H        -4.1905693720        0.3660421139        3.7567084328
 H        -2.6233148489       -0.8394652725        7.9563486364
 H        -1.0905464940       -0.4726549035        7.2537254427
 H        -1.8778796494       -2.1230744260        6.8101131977
 H        -2.7090423924        1.4393120558        7.2588814028
 H        -3.5081794563        1.7842251660        5.6499920273
 H        -4.2780302523        0.7090881578        6.9012999061
 H        -5.4731229823       -0.9549495673        2.3520704856
 H        -6.0693275386       -1.9259652689        3.5493821224
 H        -5.6852900620       -5.6072544249        0.0837429619
 H        -6.5436878955       -4.7781902749        1.1820981061
 H        -3.0377369429       -4.4599473038        4.2515823104
 H        -2.0874579003       -3.9785261218        2.8376743067
 H        -2.9247709886       -5.5501698634        2.9328513262
 H        -5.5633487403       -5.3875573825        3.3481908514
 H        -5.5069662356       -3.9458665117        4.3874372402
 H        -6.4684300646       -3.9975533379        2.9781681891
 H        -5.3623781552       -3.4467657058       -1.4313412941
 H        -7.0167890372       -4.2544905694       -1.1475485461
 H        -6.2643560190        0.9983609099       -0.3873002818
 H        -5.3309576405       -0.5552088598       -0.3126238051
 H        -8.0088920641       -3.2897195502       -2.5275918280
 H        -8.2543665753       -1.7346197046       -3.3598070618
 H        -9.4846658284       -2.4453696380       -2.1640299324
 H        -8.8629310200        0.2854497868       -1.3143096188
 H        -9.6182292374       -1.0460269160       -0.4732142891
 H        -8.3392610650       -0.0489545844        0.2456665026
 H        -4.1418877558        1.5818088355       -1.0706467128
 H        -4.6476298168        1.0343510303       -2.7144115613
 H        -1.2449940699       -2.6769810094       -3.9238643193
 H        -0.0764817323       -1.3798909121       -4.3025210071
 H        -2.4032707644        0.2802230707       -4.8509780964
 H        -3.8128430018       -0.0186307657       -4.1644789243
 H        -2.7170169831       -1.4929113327       -4.6682609185
 H        -0.7373689537        0.9289214634       -3.5489291071
 H        -2.0051167231        1.9889447930       -2.8558077670
 H        -0.8016463228        1.2292473188       -1.7594692258
 H         1.2864915270       -3.4464988128       -3.8611157540
 H         1.2752388704       -2.4645256195       -2.3239636023
 H        -2.5186070607       -7.9240924602       -2.3308460515
 H        -2.7037180851       -7.3312079807       -3.9410959449
 H        -1.2483786933       -8.1448393877       -3.3738371984
 H         0.2826608342       -5.6257243146       -4.9340275466
 H         1.1107303427       -7.0268304279       -4.3371333824
 H         1.9018357091       -5.6470109346       -4.1167629255
 H         0.3464564974       -7.8375972583       -1.8796926111
 H         1.6239892426       -6.8011041656       -1.5548737517
 H         0.0785368443       -6.4499741057       -0.7200874259
 Na       -1.8054513985       -2.7510600243        0.2324046053
