155

 C         7.1337379114       10.1460861681       -3.4956435702
 C         7.0252790390        8.9564859918       -4.3750460897
 C         7.9286273311        7.6814583991       -3.9932832106
 C         7.4768461260        7.1589600946       -2.5826816695
 C         6.1243338666        6.3956873312       -2.5874628097
 C         7.8715221646        6.6621796800       -5.2288566074
 C         9.3684751736        8.1218106791       -3.8829755724
 O         6.4456497010        8.9332822732       -5.4448954984
 O         8.1446055070        7.3143756612       -1.5856188570
 C         5.9540977701        5.9118225976       -1.1202431482
 C         4.5596303133        5.2279281606       -0.8298504835
 C         3.9167766199        5.2665471406        0.6594656053
 C         4.0958725100        3.8206607944        1.2651634387
 C         3.2149449960        2.7034390446        0.7734004508
 O         4.0265823235        4.4529330767       -1.6009980759
 O         4.9090688070        3.6146988602        2.2124728315
 C         4.6292535944        6.1789502497        1.7554222850
 C         2.3675940201        5.7352384388        0.6101458537
 C         3.6340316621        1.3848483568        1.3910226211
 C         2.6478228688        0.2356281383        1.0302180046
 C         2.4047848402       -0.9742671736        2.0176031253
 C         0.7440273954       -1.2257720606        2.0656105467
 C        -0.1883978376       -0.1685566718        2.8814980009
 C         3.0360390638       -2.1751972283        1.2341466016
 C         3.0200030685       -0.9360013904        3.4195205989
 O         1.9221273515        0.3509604725        0.0487222420
 O         0.3566575589       -2.1722726119        1.3792556558
 C        -0.9840016606       -0.6987907441        4.1019661132
 C        -1.7695179120        0.4573007153        4.7763261897
 C        -2.9125269410        0.0741175038        5.8361061014
 C        -3.8551802769       -0.8356010007        4.9817999399
 C        -4.4409903187       -0.3837730941        3.6569096477
 O        -1.6113471385        1.5736554535        4.4387751756
 O        -3.8284409891       -2.0032615497        5.1636032002
 C        -2.1710749650       -0.7641163881        7.0430559460
 C        -3.6448722361        1.3491604021        6.4415225024
 C        -5.1632731720       -1.5482964037        3.0222284488
 C        -4.0520327272       -2.5844263946        2.6202967772
 C        -4.2327148078       -4.1239046439        2.5838804205
 C        -4.3883777873       -4.4317356489        1.0490198674
 C        -5.8118464767       -4.5337103369        0.3247320916
 C        -3.0103256170       -4.8751298471        3.1316331742
 C        -5.4375533502       -4.4060611586        3.4812664915
 O        -3.1304071795       -2.1140852023        1.8735037979
 O        -3.3735311900       -4.6471115245        0.4157938979
 C        -6.0156239129       -3.3224999027       -0.7751033542
 C        -7.1223318084       -2.3402058723       -0.4219075458
 C        -7.5912362486       -1.3639393804       -1.4988995573
 C        -6.2960035208       -0.5833285960       -2.0908019066
 C        -5.5657178591        0.1930515327       -0.9247463656
 O        -7.5285678001       -2.2921859749        0.7109172780
 O        -5.7381393360       -0.4419227519       -3.1885515627
 C        -8.0361677680       -2.1866743338       -2.6681464146
 C        -8.6357920797       -0.3230704052       -1.0298842254
 C        -4.2386801795        0.6689925725       -1.3498631945
 C        -3.2555083812       -0.5140992284       -1.5203065991
 C        -2.0634519239       -0.3994548828       -2.5658268478
 C        -0.9218634216       -1.4859123842       -2.2796201872
 C        -0.4332143879       -2.4135436109       -3.4028146665
 C        -2.6022210469       -0.3790006597       -4.0503229686
 C        -1.4143790576        1.0292158349       -2.3126032058
 O        -3.3056935239       -1.5999825987       -0.9024163446
 O        -0.3276581704       -1.3660337637       -1.2665978522
 C         0.7761274179       -3.2352778475       -2.8591537948
 C         0.2039631433       -4.4163710555       -2.0666906557
 C        -0.0560834575       -5.7828693433       -2.8359666405
 C        -1.5608804460       -6.1466020396       -2.7434968778
 C        -2.0845350246       -7.4795607326       -3.2037883754
 O        -0.0266589860       -4.3151149647       -0.9089777647
 O        -2.3581856133       -5.2591722039       -2.5927256690
 C         0.2896760223       -5.7619673314       -4.3740104051
 C         0.6708179325       -6.9217410129       -2.1304351314
 H         7.2879541986        9.8577556407       -2.4747808913
 H         7.9032510904       10.7620028471       -3.7790284150
 H         6.1793668598       10.5482490665       -3.5049744551
 H         5.3802518168        7.1545651977       -2.8837936105
 H         6.0175424752        5.6384793600       -3.3518896037
 H         8.3570031744        5.7028061504       -5.0140694159
 H         8.2782702718        7.1279673387       -6.0804902406
 H         6.8492025781        6.3941455382       -5.5163386255
 H         9.5426764006        8.9838543604       -3.2701711124
 H         9.9776749249        7.2932846977       -3.5472908376
 H         9.7666967616        8.4426424176       -4.8388045238
 H         6.7181933367        5.1753991747       -0.8676115419
 H         6.1743291452        6.7933465508       -0.4022721851
 H         2.2308611975        3.0635503756        1.2365329355
 H         3.1823609735        2.6955621610       -0.2928564851
 H         4.2164835588        6.0770758900        2.7083257235
 H         4.5599693530        7.1853480818        1.3578116003
 H         5.6695814298        5.9759229690        1.8434357737
 H         1.9407528090        5.4966549306        1.5274950991
 H         2.3241783364        6.8187154918        0.4216779531
 H         1.9170572125        5.2159976269       -0.2432647205
 H         3.6569048508        1.6107782563        2.4641071488
 H         4.6696859337        1.3029792389        1.1234412570
 H         0.3702267083        0.6532721596        3.3314356707
 H        -0.9233430273        0.1547457666        2.1003494625
 H         2.3942343291       -2.9927255752        1.4968521973
 H         3.9387679856       -2.3986882905        1.6617470366
 H         3.0972466077       -2.0177495531        0.1865821265
 H         2.4240183429       -0.4255540875        4.1772162090
 H         3.0041326701       -1.9720620313        3.7925027506
 H         4.0859278107       -0.7082924993        3.4129594641
 H        -1.7706052639       -1.4736567073        3.8095165254
 H        -0.2421922924       -1.2409573526        4.7358968530
 H        -5.2252226615        0.3210068752        3.7998630200
 H        -3.6704571123       -0.0169852238        2.9890644310
 H        -2.8216489709       -1.3769019379        7.7599097528
 H        -1.8176970094        0.0132827834        7.6536976305
 H        -1.3369778420       -1.3591898836        6.5617417430
 H        -2.8765757990        1.9238423032        6.9252118709
 H        -4.2041484142        1.8201567705        5.6913949288
 H        -4.2821704031        1.0702170294        7.2577468267
 H        -5.6951412462       -1.2275525726        2.1557533570
 H        -5.8703982611       -1.9666259038        3.8210523452
 H        -6.0421928093       -5.5397003052        0.0298456464
 H        -6.6156908042       -4.3705441258        1.0612532611
 H        -2.5669466229       -4.3481172423        3.9964561629
 H        -2.2396659684       -4.9051613270        2.3844781287
 H        -3.1853402492       -5.8205805858        3.5624677389
 H        -5.5382136606       -5.4930481907        3.5917588777
 H        -5.3637535625       -3.9736047094        4.4105041337
 H        -6.3701467760       -3.9888427527        3.0627557036
 H        -5.1153940976       -2.7250322563       -0.9388012531
 H        -6.2515533557       -3.8410597727       -1.6737671076
 H        -6.1802046595        1.0624102321       -0.6049941734
 H        -5.4229167075       -0.5042501013       -0.1146356237
 H        -9.1287314396       -2.1135293259       -2.8373953172
 H        -7.7261087297       -3.1964698993       -2.6389772724
 H        -7.6684784468       -1.7227234176       -3.5726046199
 H        -9.1154582479        0.1404096775       -1.8888671559
 H        -9.3656821588       -0.7904905895       -0.4268342902
 H        -8.1120468072        0.4775276397       -0.4268290705
 H        -3.7186190003        1.1799392231       -0.4519757443
 H        -4.2166165183        1.3729996074       -2.2374930900
 H        -1.2021909951       -3.0872344717       -3.7637140107
 H        -0.0916717882       -1.7992139175       -4.2301967356
 H        -1.8778388849       -0.7305399457       -4.7360818573
 H        -2.9259855695        0.6315500229       -4.3074668129
 H        -3.5085933593       -1.0181909171       -4.0885371811
 H        -0.6558005028        1.0986292260       -3.1234959764
 H        -2.0740131184        1.8497418554       -2.3497030678
 H        -1.0429072254        0.9127911228       -1.3178252243
 H         1.3605344295       -3.3979124848       -3.7446919119
 H         1.3855740460       -2.6341138792       -2.0993084578
 H        -3.0810787489       -7.8276818349       -2.8046440364
 H        -2.3992956513       -7.3520971141       -4.2589699671
 H        -1.3978263410       -8.3319679308       -3.1976694141
 H        -0.4782949410       -5.1545812156       -4.9083822973
 H         0.2106970995       -6.7582769772       -4.7600286674
 H         1.3106125011       -5.3064661164       -4.5657310463
 H         0.6093685413       -7.8018659662       -2.8380764204
 H         1.6604837660       -6.6401881196       -1.8943443663
 H         0.0929471376       -7.2361692149       -1.3057589071
 Na       -1.6586597222       -3.0650580207        0.2588299171
