155

 C         6.3827792852       10.5391384534       -3.0450186650
 C         6.2353524036        8.9838999472       -3.3192362656
 C         7.4243383909        7.9023998938       -3.1440169723
 C         7.0716968211        6.9929673312       -1.9111448534
 C         5.6330080792        6.7535484251       -1.6103707289
 C         7.4416241008        6.9998761328       -4.4855265948
 C         8.8120281761        8.7003986688       -2.9810992578
 O         5.1670968114        8.6204389953       -3.7384530465
 O         7.9400970912        6.6057677338       -1.1470658551
 C         5.4541010473        5.3193796467       -0.8435645339
 C         3.9504654687        4.9170257109       -0.8292860062
 C         3.0186631989        5.3406444703        0.3943378353
 C         3.1951430430        4.1427345298        1.5161781044
 C         3.1103155404        2.7655280211        0.9564577388
 O         3.5006220615        4.1934630178       -1.6671624076
 O         3.3433368426        4.2688308758        2.7308360037
 C         3.3204193503        6.7286056213        1.0114169887
 C         1.4939282957        5.2867521883       -0.0767515463
 C         3.6199544090        1.6065042808        1.7846548291
 C         3.1145577263        0.2037788684        1.2549304597
 C         2.8423617698       -0.9652235787        2.2766769427
 C         1.3574284657       -1.1820521264        2.1562094771
 C         0.3831859076        0.0473177654        2.2190188890
 C         3.6634389721       -2.2027602631        1.7830292734
 C         3.2830941644       -0.5013803499        3.6819867472
 O         3.1370033597        0.0587086868        0.0675640041
 O         0.7566509713       -2.2588150230        2.0665723736
 C        -0.5622665153        0.1141141941        3.5742246019
 C        -1.9875543411        0.7567669673        3.3987518299
 C        -2.9777676331        0.7627627917        4.6764483490
 C        -3.6798897629       -0.6405346164        4.6678138536
 C        -4.8870250130       -0.9156240711        3.7144109728
 O        -2.4786851506        1.0041655087        2.3376850276
 O        -3.4236727564       -1.5017399381        5.4935404302
 C        -2.3239417557        1.0959500732        6.0715401243
 C        -4.1733597022        1.8526882501        4.4583457099
 C        -5.2657747129       -2.3692224660        3.5680856235
 C        -4.2290858435       -3.1692954833        2.7882736734
 C        -4.5127344433       -4.5971049403        2.1349603556
 C        -4.3786532462       -4.3120665328        0.5368135462
 C        -5.2522625938       -5.0923403972       -0.4589267574
 C        -3.3925861231       -5.5508927090        2.4915732510
 C        -5.8268871444       -5.2533424736        2.5375573763
 O        -3.1830487808       -2.6575896773        2.5283394804
 O        -3.5123934993       -3.4947297183        0.1653369291
 C        -6.0728960560       -4.3024885725       -1.5548511516
 C        -6.3008370442       -2.8803832777       -1.0888843933
 C        -6.6380238377       -1.7518955910       -2.1959163735
 C        -5.3270574946       -1.0035961301       -2.4641898177
 C        -4.7996007825        0.1167538630       -1.4915505232
 O        -6.1410567215       -2.5539658541        0.0994077318
 O        -4.5570637982       -1.2842247764       -3.4123629576
 C        -7.2318042436       -2.2483015899       -3.5523048851
 C        -7.6209389892       -0.7862854965       -1.4392856592
 C        -3.4440205999        0.7253999886       -1.8250262204
 C        -2.3095950547       -0.0224289216       -1.3027560539
 C        -0.9990221735        0.0001336343       -2.1359565209
 C        -0.0832448469       -1.2275819252       -1.6328693194
 C         0.0021343175       -2.4098476498       -2.5599368092
 C        -1.1688099540       -0.1052938607       -3.6768643033
 C        -0.3153733280        1.4273919582       -1.8187398836
 O        -2.3278367628       -0.5671826782       -0.2075990501
 O         0.3573944166       -1.1501132781       -0.4930116368
 C         0.5011741609       -3.7528157535       -1.8931163537
 C        -0.6267896264       -4.7236217478       -1.6789615490
 C        -0.8297402528       -5.8593796275       -2.7393671420
 C        -2.3901970936       -6.3357110194       -2.8180342201
 C        -2.4987087253       -7.8489087861       -2.9120964528
 O        -1.1880290161       -4.6422855670       -0.6312815808
 O        -3.2733840062       -5.5268985721       -2.9646574797
 C        -0.4844406419       -5.5034289449       -4.2666571438
 C         0.1881074679       -6.9707172345       -2.1978341872
 H         6.8663196238       10.7993447174       -2.0599701310
 H         7.1169084317       10.9802421242       -3.7075734818
 H         5.4689826253       11.0710726142       -3.3068802463
 H         5.3307558724        7.4985241769       -0.9261780347
 H         5.0076692465        6.7411174165       -2.4669828272
 H         8.1613366141        6.2057037918       -4.2703581870
 H         7.6958290895        7.6255018218       -5.3312196157
 H         6.4906982934        6.4535279244       -4.7202313034
 H         8.8464383626        9.3371493301       -2.1151605196
 H         9.5861388427        7.9467709763       -2.9443820317
 H         8.9393338816        9.3344270353       -3.8949971527
 H         5.9816342907        4.5040527957       -1.3470088744
 H         5.8097153850        5.5897135770        0.1386212414
 H         2.1473075805        2.4343259238        0.5826275297
 H         3.6930861461        2.7456766207       -0.0089425853
 H         2.4268067392        7.0560982874        1.4893874468
 H         3.6348833126        7.4686676310        0.2177160223
 H         4.1905656718        6.7317327494        1.6919480076
 H         0.8221315349        4.8992711275        0.7126141323
 H         1.2040245780        6.3529034939       -0.2569349922
 H         1.4348849834        4.5254455356       -0.9088041171
 H         3.2856168414        1.6785911155        2.8375466497
 H         4.6904941735        1.5198853047        1.8312151301
 H         0.8198242423        1.0304925572        2.1753587381
 H        -0.2096111096       -0.1159773772        1.2669335205
 H         4.7246844804       -2.0480681709        1.9448487378
 H         3.7063787919       -2.3659049473        0.7188479257
 H         3.3037483467       -3.1312358854        2.0871849725
 H         2.5072606436        0.0728423567        4.2045095606
 H         3.4515915180       -1.3804155196        4.3471969337
 H         4.2105086142        0.0118441233        3.6724998471
 H        -0.8209456491       -0.8865066520        3.9891782305
 H         0.1002094651        0.5315000479        4.4430726595
 H        -5.7765491947       -0.3265012429        3.9694838036
 H        -4.6413137271       -0.3977679594        2.7450190190
 H        -3.0094061616        1.6490420258        6.7186266619
 H        -1.6236224261        1.9487468751        5.9547859167
 H        -1.8961950115        0.2958728213        6.5779353970
 H        -3.7307043706        2.8615175653        4.5206991405
 H        -4.7121958198        1.6459126719        3.5276485907
 H        -4.8849914781        1.8848617529        5.2698615285
 H        -6.2009150866       -2.4368668491        3.1341916890
 H        -5.4067775821       -2.8723345559        4.5488278962
 H        -4.7381734839       -5.8322284302       -0.9806518957
 H        -6.0925252013       -5.4875579363        0.1244731395
 H        -3.3610060231       -5.7312165680        3.5789340088
 H        -2.4024443569       -5.2508627849        2.1509671694
 H        -3.6569161500       -6.5405889498        2.1097930066
 H        -6.0049346613       -6.2856490059        2.0319571181
 H        -5.9376763343       -5.3202036033        3.5937480655
 H        -6.5164603943       -4.4546786838        2.2198425915
 H        -5.4594899803       -4.1636764159       -2.4443998022
 H        -6.9074218240       -4.8622668334       -1.8914986388
 H        -5.4557229576        0.9726545473       -1.3694393175
 H        -4.8773080823       -0.3907845658       -0.5151715915
 H        -7.0389625874       -1.4116637344       -4.2746123772
 H        -8.2792385493       -2.5404454966       -3.6231244834
 H        -6.7330862729       -3.1007409779       -4.0570064141
 H        -7.1751412690        0.2151439348       -1.6015989978
 H        -8.6456895361       -0.9577740409       -1.6739875575
 H        -7.3254424279       -0.9660865044       -0.3837692838
 H        -3.3342711804        1.8002068760       -1.4531660393
 H        -3.3629610509        0.7436150116       -2.9389797030
 H        -0.9926389077       -2.4508405495       -2.9484304829
 H         0.7351499442       -2.0618076667       -3.3107281133
 H        -0.2627999025       -0.1350487952       -4.2258545282
 H        -1.5835142663        0.8420064573       -3.9556719092
 H        -1.8362319827       -0.9295517458       -3.9718135642
 H         0.8146463974        1.3418990992       -1.9463058760
 H        -0.6879071080        2.1549265440       -2.5303209767
 H        -0.6203248901        1.7821440420       -0.8170679484
 H         1.2894229420       -4.2423347398       -2.4864262139
 H         0.8466355873       -3.4569571449       -0.8376505011
 H        -3.5542207722       -8.2026795626       -2.9531132755
 H        -2.0602452290       -8.1926036528       -3.8366259733
 H        -2.1564751056       -8.4481738490       -2.0876827577
 H        -1.4090544375       -5.0018057517       -4.6605058155
 H        -0.3847142162       -6.3967721937       -4.8562024500
 H         0.4385090421       -4.9184018386       -4.3343490697
 H         0.2663385797       -7.8965862057       -2.8808230215
 H         1.1477180917       -6.4546496591       -2.1585155138
 H        -0.0932712467       -7.3417213024       -1.1974228534
 Na       -1.1316572762       -2.5596781347        0.6829535756
