155

 C         6.6215538972       10.6995616656       -3.2958931362
 C         6.1157952452        9.3134138711       -3.0249334406
 C         7.1616541851        8.1553190974       -2.7855010908
 C         6.7805172204        7.0970438772       -1.7895839020
 C         5.3088732679        6.5807696099       -1.8441867781
 C         7.3309313368        7.6244575472       -4.2503647359
 C         8.5746339298        8.6780216320       -2.2993525538
 O         4.9506125252        9.0860390891       -2.9694712410
 O         7.5957585493        6.6130797740       -1.0120087599
 C         5.0164441914        5.5442076157       -0.8340697239
 C         3.5686449397        4.9112651755       -0.9524034462
 C         2.5946921977        5.0409549024        0.3026835719
 C         2.9177449068        3.9203729415        1.3695766692
 C         3.2280617039        2.5339885611        0.9300289843
 O         3.2304202338        4.2545049594       -1.9173080279
 O         2.9296153954        4.1729214521        2.5798644788
 C         2.7763236309        6.3925006835        1.0866089546
 C         1.0548030382        4.8070642151       -0.0338421910
 C         3.1354461913        1.3676115336        1.9998482514
 C         2.9767346129       -0.0486098011        1.5026751355
 C         2.3755173108       -1.2163123522        2.5661159604
 C         0.8520306808       -1.4866962169        2.0789399299
 C        -0.1597693932       -0.2753102362        2.2131342763
 C         3.1137539486       -2.4944906685        2.1619202058
 C         2.4024359775       -0.9129805947        4.1349845873
 O         3.1122047284       -0.2791098188        0.3168821522
 O         0.5433764292       -2.5500761196        1.6379339269
 C        -0.9482652752        0.0104525758        3.4333758843
 C        -2.2388667214        0.7504069529        3.0696995502
 C        -3.2454850740        0.9973471317        4.2629852656
 C        -3.6579153603       -0.4726679897        4.7168578312
 C        -4.5402329272       -1.1124601720        3.6571219988
 O        -2.4339256179        1.0282864044        1.9272810332
 O        -3.1990499740       -0.9386045763        5.6942522217
 C        -2.3198088691        1.6784197292        5.3949098915
 C        -4.3872853216        1.9424205145        3.7906408364
 C        -4.7518849602       -2.6541251012        3.8922748368
 C        -3.7838254298       -3.4371980913        2.9187817619
 C        -4.2689053463       -4.5961394616        2.1160870762
 C        -4.2335629792       -4.1559071419        0.5818425283
 C        -5.0132337471       -4.9329503639       -0.4896161013
 C        -3.1011699707       -5.6700103846        2.0842178837
 C        -5.5952302645       -5.2043968226        2.5948055666
 O        -2.5831323955       -3.0856847057        2.9578163508
 O        -3.4474133191       -3.2500984981        0.2982014781
 C        -5.3582890572       -4.0771423983       -1.7214157077
 C        -6.2367485417       -2.8673587700       -1.3205583145
 C        -6.4766123795       -1.5944432533       -2.4522264547
 C        -5.0339416099       -1.0160728514       -2.5084626402
 C        -4.5733763525        0.2892603667       -1.9126389921
 O        -6.4785212699       -2.6239383456       -0.1715522659
 O        -4.1976683096       -1.6278488033       -3.1832447202
 C        -6.8121170156       -2.1259247889       -3.9087687199
 C        -7.5622216750       -0.6129947664       -1.8207620007
 C        -3.1609848286        0.7994756484       -2.3234703790
 C        -2.0335346017        0.0409853754       -1.6359659145
 C        -0.5895122876        0.2470922218       -2.1598300251
 C         0.1232194480       -1.0252096126       -1.7214688452
 C        -0.0678082514       -2.3107611641       -2.6453150420
 C        -0.3931222249        0.4315446535       -3.6780462370
 C        -0.0566230808        1.4003879081       -1.2171573298
 O        -2.1372038626       -0.6134782984       -0.6299585065
 O         0.7579634244       -1.1810532648       -0.6840920920
 C         0.7560607649       -3.5184722761       -2.1820673104
 C        -0.2547042506       -4.6015065130       -1.7200353824
 C        -0.5776220047       -5.9441063904       -2.5446720967
 C        -2.1941178879       -6.2986539314       -2.3576222887
 C        -2.6431306331       -7.7848981455       -2.1079435354
 O        -0.8845140613       -4.5480056697       -0.6219268895
 O        -2.9405136665       -5.4485519372       -2.7045325479
 C        -0.2826139519       -5.8513094229       -4.1047274031
 C         0.2209168330       -7.0548930397       -1.8180894063
 H         7.0224936092       11.0582477220       -2.3991397035
 H         7.4423148001       10.7566602367       -3.9830738345
 H         5.8604754121       11.4284104851       -3.4352728446
 H         4.6438268042        7.4381427132       -1.6415124712
 H         4.9811761938        6.0738782693       -2.7649912188
 H         7.8762074001        6.7085441309       -4.1855307949
 H         8.0044422091        8.3311585203       -4.8412101430
 H         6.3190691039        7.4410403870       -4.6831910084
 H         8.5742827081        9.0166834259       -1.2572704275
 H         9.2554578725        7.8378619186       -2.4002737001
 H         8.8086031022        9.4614611103       -3.0066522680
 H         5.7610546344        4.7860293624       -1.1805346607
 H         5.2658660029        5.8431351885        0.1419671220
 H         2.4348592307        2.3923487940        0.1688628054
 H         4.2101840491        2.5649565468        0.4549351539
 H         2.0491390196        6.4777573232        1.8568316523
 H         2.7897136967        7.3566224811        0.5171427036
 H         3.6366409331        6.3048484018        1.6947688383
 H         0.5966529740        4.9805107982        0.9594059985
 H         0.7283436196        5.4231010804       -0.8428539797
 H         0.8265151791        3.8580311658       -0.4931541608
 H         2.3561661244        1.6005838324        2.6863868410
 H         4.0340893791        1.3797685063        2.6722072992
 H         0.3612265478        0.7469151766        2.0947648928
 H        -0.8772271998       -0.4305427382        1.4252250420
 H         4.1484325013       -2.6195528196        2.0385748464
 H         2.7107255957       -2.7688363223        1.2819758059
 H         2.9313045981       -3.2907925561        2.8131845112
 H         1.7291541100       -0.0866033143        4.3396607455
 H         2.1479242588       -1.8156860159        4.6858863078
 H         3.4148029295       -0.6269756991        4.4502001730
 H        -1.2602537141       -0.9792086844        3.8896997316
 H        -0.3378563726        0.4945182809        4.1769137818
 H        -5.4476722186       -0.5965260489        3.6942367001
 H        -4.0693915790       -0.9420111411        2.7701298859
 H        -2.7820312159        2.6514781790        5.8789066809
 H        -1.3587865812        1.9826528645        4.9445220769
 H        -2.2098053073        1.0440424210        6.3339222090
 H        -3.9826476916        2.8968659302        3.4850283643
 H        -4.9865645169        1.6527348052        2.9000436910
 H        -5.0108833080        2.0919612498        4.6460553582
 H        -5.7715939832       -2.9107132627        3.7157385713
 H        -4.5058915625       -2.9214819041        4.8914301042
 H        -4.1970196964       -5.5880991762       -0.7926531808
 H        -5.8464801159       -5.7208486359       -0.2801941396
 H        -2.8002393424       -6.0941631965        3.0143907706
 H        -2.3250219811       -5.0683076667        1.6624697247
 H        -3.2657976795       -6.5208248661        1.3476601033
 H        -5.7548861796       -6.2642356676        2.3841711609
 H        -5.6697681938       -5.1312836085        3.7274730228
 H        -6.4077896496       -4.6605418658        2.1491181357
 H        -4.4534693463       -3.6894537217       -2.1388334933
 H        -5.9229516607       -4.5928522236       -2.5427691434
 H        -5.3303553951        1.0233240872       -2.3248161926
 H        -4.7268361031        0.2934689409       -0.8096843796
 H        -6.6161619381       -1.4255094133       -4.6895505989
 H        -7.8473538102       -2.4124680971       -4.1713431241
 H        -6.2058426113       -3.0236202928       -4.1991667324
 H        -7.5098906025        0.3479833788       -2.3686847708
 H        -8.5973873014       -1.0176934353       -2.0295335091
 H        -7.4419534262       -0.5855604352       -0.7712684037
 H        -3.0248020986        1.7714450256       -2.0941113639
 H        -2.9613665369        0.4737877215       -3.3032615814
 H        -1.1658618486       -2.5089791263       -2.5734525006
 H         0.1568629231       -2.1156728492       -3.6768851491
 H         0.5840952260        0.5773683082       -3.9943611852
 H        -0.9668831147        1.2558539501       -3.8833213882
 H        -0.8498697800       -0.3152975896       -4.3322323213
 H         0.1583281174        2.3188668564       -1.7366351065
 H        -0.9918214408        1.6964278861       -0.6321156367
 H         0.5978259158        1.1525331147       -0.4020608012
 H         1.3103590097       -3.9461915154       -3.0798714491
 H         1.4505351409       -3.2538461203       -1.3709439814
 H        -3.7242971695       -7.9900250612       -2.1668857177
 H        -2.1429466475       -8.4507864862       -2.8420207913
 H        -2.3941248494       -8.1425863703       -1.0753997254
 H        -1.0673974807       -5.2852387062       -4.6614312564
 H        -0.1680474684       -6.9412922414       -4.3909135822
 H         0.6229337515       -5.3004358008       -4.3478285260
 H         0.1383686204       -7.9661166698       -2.3441360748
 H         1.3031323171       -6.8843116731       -1.5281821745
 H        -0.2402467809       -7.3110633758       -0.8235284248
 Na       -1.3251908707       -2.5959382505        0.6072069906
