155

 C         6.7540083724       10.7735195886       -3.1958771338
 C         6.0509380879        9.5355340096       -2.7364580435
 C         7.0118878847        8.2179387340       -2.7035872122
 C         6.4887226244        7.0696465613       -1.7529987515
 C         5.0923433487        6.4194916560       -1.9574890354
 C         7.1526535491        7.7045291571       -4.1391306390
 C         8.3765952657        8.6257144195       -2.0924543492
 O         4.9008047590        9.5690157992       -2.3561406921
 O         7.0757018479        6.8459025497       -0.7072985391
 C         4.7908166105        5.4153365035       -0.9051436237
 C         3.4421791005        4.7822269010       -0.8458663680
 C         2.4109466583        4.9333657100        0.3469316778
 C         2.8344108873        3.8903176793        1.4663419043
 C         3.2765161388        2.3943532338        0.9225998311
 O         3.0811851746        4.1230152657       -1.7639987039
 O         2.9698956434        4.1322824158        2.6447655235
 C         2.4348771143        6.2438810397        1.1879427814
 C         1.0312846741        4.6599078350       -0.2016225654
 C         2.7570535724        1.4015617655        1.9562538633
 C         2.9991970768       -0.1205264242        1.6075584112
 C         2.3796985923       -1.2307642368        2.5879514929
 C         0.9161976818       -1.4351156705        2.0288590885
 C        -0.1241345170       -0.1814719432        2.0858560645
 C         3.1926495047       -2.5708801196        2.5963485183
 C         2.1429647495       -0.7323713569        4.0709221437
 O         3.6716640159       -0.5045923469        0.6806055310
 O         0.5406188752       -2.5575544966        1.9044462718
 C        -1.1311536474       -0.1412055634        3.1805261346
 C        -2.2805907427        0.8368551241        2.9167322730
 C        -3.3427601116        1.0087787267        4.0654230518
 C        -3.7575583532       -0.3966215603        4.5906776812
 C        -4.7131122610       -1.2618257654        3.6551918049
 O        -2.2338507750        1.5000481372        1.8842624971
 O        -3.4386187873       -0.7038215779        5.7777928245
 C        -2.7155445725        1.7344976334        5.2256154954
 C        -4.4626646885        1.7873251871        3.4960662424
 C        -4.3865160478       -2.7869494176        4.0253497214
 C        -3.5621960535       -3.3475696605        2.8583699038
 C        -3.9593791779       -4.6027786665        2.0827191039
 C        -4.3373364504       -4.0797859834        0.6396591982
 C        -5.5588320328       -4.6209410305       -0.1036835397
 C        -2.6327125987       -5.4610696570        1.9802906685
 C        -5.2166365370       -5.2899208062        2.6933106171
 O        -2.5345996847       -2.7928459158        2.4660458780
 O        -3.6436217075       -3.2590928830        0.0947316994
 C        -5.5888382112       -3.8816797279       -1.5324223943
 C        -6.3696467706       -2.5312523200       -1.3131749810
 C        -6.2278902902       -1.5233073062       -2.4817905496
 C        -4.8971430520       -0.8464430502       -2.6663781986
 C        -4.6007274924        0.6428337693       -2.3696080744
 O        -7.1129856283       -2.3200001106       -0.3623699039
 O        -4.0084198547       -1.5514866066       -3.2024863370
 C        -6.5641759091       -2.2450728860       -3.7898680920
 C        -7.2567648580       -0.4401603619       -2.2708767513
 C        -3.0582757919        0.9133829975       -2.4403775724
 C        -2.1318304507       -0.0588552273       -1.7490205963
 C        -0.4712401749        0.0950259956       -2.0936656656
 C         0.2524133475       -1.2046076913       -1.8232849522
 C         0.0517743719       -2.3600877108       -2.8645576196
 C        -0.4092223508        0.5475640916       -3.5020397713
 C        -0.0285479601        1.1476489706       -0.9829076568
 O        -2.4116565973       -0.9457943374       -1.0187866610
 O         0.8991833129       -1.4262330704       -0.8025059667
 C         0.7752554135       -3.5767742885       -2.3289316889
 C        -0.1517299182       -4.7592046369       -1.8794152829
 C        -0.2516990078       -6.2579605068       -2.4870745038
 C        -1.8551400355       -6.5300806377       -2.3981018311
 C        -2.3044216995       -7.6964704729       -1.5112325158
 O        -0.8412945165       -4.6420506885       -0.8524235856
 O        -2.4886384700       -5.6754161832       -2.9687012451
 C         0.1521293175       -6.2861502872       -3.9627536956
 C         0.6517743473       -7.1967354187       -1.6526030998
 H         7.3412930199       11.3349755981       -2.4158970461
 H         7.3538696788       10.6803706085       -4.1102144560
 H         5.9723783885       11.5493951446       -3.3686967317
 H         4.3665744587        7.2039965130       -1.7828913293
 H         4.9213323529        6.0716067121       -2.9691207145
 H         7.7944009610        6.9014463972       -4.0628622273
 H         7.6918902463        8.4275761078       -4.7839722621
 H         6.1979980799        7.4765022652       -4.6429116414
 H         8.0265245326        9.3441676498       -1.3710113247
 H         8.8549066251        7.8197173811       -1.5698160988
 H         9.0186387617        9.1096954386       -2.8427282437
 H         5.5424264650        4.6009754043       -1.0154389151
 H         5.0706502332        5.8570165967       -0.0152872621
 H         2.8769311096        2.4006218476       -0.0954700608
 H         4.3640783396        2.2412694175        0.9937244552
 H         1.7511917178        6.1562068384        2.0048217431
 H         2.0164868538        7.2000307096        0.6702655643
 H         3.4427453883        6.4146491237        1.6119906172
 H         0.2754501852        4.5034832973        0.6333997149
 H         0.6109570769        5.5339113314       -0.7589637012
 H         1.1142293854        3.7997105793       -0.9545931065
 H         1.8631834077        1.7454010349        2.3289844090
 H         3.4237842696        1.6594609920        2.8365249201
 H         0.4028280205        0.8311124690        2.0322408880
 H        -0.6720101175       -0.2069151787        1.1731723050
 H         4.0643606044       -2.5957189079        3.2550261778
 H         3.5184496033       -2.9783665443        1.6615034192
 H         2.6993161084       -3.3900727266        3.0281576074
 H         1.3439480028       -0.0390296806        4.3016364784
 H         1.9346762420       -1.6143961093        4.6605978081
 H         3.0440031793       -0.2507474178        4.2769902689
 H        -1.5332443471       -1.2043144625        3.1493007965
 H        -0.6791591652        0.0357446185        4.1615787590
 H        -5.6891415317       -1.1203586034        4.0609398612
 H        -4.5722696334       -1.0589385778        2.6187545092
 H        -3.1261473678        1.3216381529        6.1776545720
 H        -2.8039011951        2.8680122155        5.1323614526
 H        -1.6560951023        1.6859813240        5.1561633401
 H        -4.1740190148        2.7982193553        3.1324093648
 H        -4.9016731193        1.2885608403        2.5645648966
 H        -5.2924323572        1.7625831735        4.1786513643
 H        -5.2654371517       -3.3312636504        4.0417261723
 H        -3.8971394505       -2.9074936640        4.9848928335
 H        -5.6778684968       -5.6466334550       -0.1252204470
 H        -6.5217739084       -4.4067432623        0.4888004624
 H        -2.4092676823       -5.8863382953        2.9165337303
 H        -1.7413626701       -4.9200254769        1.7063167441
 H        -2.8166726527       -6.1482301588        1.0944430066
 H        -5.4753124343       -6.1020781462        2.0113993495
 H        -4.9214456301       -5.6447251429        3.7083939316
 H        -6.1613367280       -4.8312789518        2.7720882538
 H        -4.6293122577       -3.6593171574       -1.8605240637
 H        -6.1219920795       -4.4125030061       -2.3379354788
 H        -5.0524913972        1.3006923750       -3.0959217910
 H        -4.9591871489        0.7557717470       -1.3295743083
 H        -7.0134115274       -1.6820451758       -4.6034882158
 H        -7.3273192120       -3.0369946475       -3.5982404281
 H        -5.6651263182       -2.7310277918       -4.2814721756
 H        -7.5691714264        0.0930851940       -3.2072136361
 H        -8.1663395550       -0.9536856552       -1.9188041198
 H        -6.9039743528        0.2050143315       -1.4950944074
 H        -2.8060600924        1.7487873085       -1.8658491334
 H        -2.7037044135        0.9413913971       -3.4530201860
 H        -1.0382099373       -2.5744627404       -2.9713266725
 H         0.3283515596       -2.0396599250       -3.8415823265
 H         0.6449294458        0.5740143082       -3.7867033232
 H        -0.7533280528        1.5252793386       -3.7859298650
 H        -0.8275905645       -0.2337685220       -4.2291030062
 H         0.1478428268        2.1992022582       -1.2867347901
 H        -0.7708898872        1.2685080896       -0.1436801744
 H         0.9266036083        0.8323129546       -0.5960550254
 H         1.5736188000       -3.9715624421       -3.0804226349
 H         1.4092227102       -3.2512990807       -1.4653662564
 H        -3.3836482102       -7.7372722012       -1.5026412351
 H        -1.9389738624       -8.6408573156       -1.7740211414
 H        -1.9139788943       -7.5530680696       -0.5247273416
 H        -0.0928131726       -5.3106455558       -4.4113055778
 H        -0.3159199098       -7.0757556395       -4.5632381367
 H         1.1681068183       -6.4047504211       -4.0966768172
 H         0.8838343521       -8.2166412325       -1.9395335725
 H         1.6981386570       -6.8493456701       -1.5547783993
 H         0.2751260186       -7.1748527898       -0.6168007986
 Na       -1.4610365662       -2.7141643796        0.4744955084
