155

 C         6.2401289245       10.8301256757       -2.6633040031
 C         5.7921404001        9.5902021793       -2.0114951801
 C         6.5848189793        8.3065689914       -2.2335036039
 C         6.1801501956        7.2764256351       -1.0479154048
 C         4.7842933644        6.7684045380       -1.1211059504
 C         6.2419342024        7.7733278712       -3.6317691143
 C         8.1270643526        8.6409097053       -2.0012010311
 O         4.7457586847        9.5893311574       -1.3565637527
 O         7.0179959206        6.8630555996       -0.2660485726
 C         4.6112282532        5.4187001467       -0.5020628844
 C         3.2060777201        4.7762566648       -0.6039430694
 C         2.2046262494        4.9082340658        0.5517849811
 C         2.9937346481        3.9579785725        1.5695171010
 C         2.9208194736        2.4437836181        1.2932194390
 O         3.0626621822        4.0227777340       -1.5083975041
 O         3.6890678692        4.4773581707        2.3758640760
 C         2.0976165580        6.4283730082        1.0862406917
 C         0.7852987355        4.5426983533        0.0372250063
 C         3.1222131684        1.6204662889        2.5683406974
 C         2.9712784225        0.0779051192        2.2606741254
 C         2.3625668391       -0.8841663093        3.2305446476
 C         0.8502281985       -0.9858531003        2.6309287135
 C         0.1065227124        0.2937774753        2.6403280229
 C         2.9874112105       -2.2557158751        3.4204403584
 C         2.1815076273       -0.3252253434        4.6816152412
 O         3.5375165525       -0.4346800158        1.2946939457
 O         0.4673003636       -1.9961939959        2.1170274263
 C        -1.2502406346        0.1227794751        3.2927921681
 C        -2.3575178739        1.0907976953        2.9281487732
 C        -3.6291963000        1.1354187737        3.8428906782
 C        -3.9494658533       -0.2946737829        4.2864058021
 C        -5.1252116198       -1.1240086277        3.6961909973
 O        -2.2821237530        1.6714440320        1.8464135240
 O        -3.2546168021       -0.8982588821        5.1339397150
 C        -3.1078073783        1.9158821627        5.2222968964
 C        -4.7472874229        1.9364232493        3.2425734090
 C        -4.8912851976       -2.6620956745        3.5190350051
 C        -3.7825795670       -3.1300476290        2.6065676027
 C        -3.9338055854       -4.5974230956        1.9244925280
 C        -4.2974547062       -4.1314209745        0.4470601936
 C        -5.8383736349       -3.8866428722        0.1964795801
 C        -2.4780017782       -5.2368991806        1.9992650630
 C        -4.9288442698       -5.5044251068        2.5555428990
 O        -2.8385656333       -2.4805606678        2.2176481459
 O        -3.5122243545       -3.7332419261       -0.3714457906
 C        -6.1574186762       -3.5675768720       -1.2749041987
 C        -6.3186964459       -2.0378422549       -1.5318349418
 C        -6.2762969369       -1.4753880129       -2.9851223386
 C        -4.8318794215       -0.8431884118       -3.2349852462
 C        -4.6124937828        0.5143422384       -2.5094341468
 O        -6.3585918054       -1.2803434582       -0.5785118365
 O        -3.9681375843       -1.4688045173       -3.8649916666
 C        -6.3872168588       -2.7421927339       -4.0671205909
 C        -7.4408294142       -0.3758750718       -3.1086983647
 C        -3.1056485679        0.8269791516       -2.3389929434
 C        -2.1634116404       -0.3046324320       -1.8682124429
 C        -0.7953422572       -0.4840051391       -2.7791036548
 C        -0.0803918481       -1.7022896027       -2.3089152252
 C         0.0860284924       -2.8690973874       -3.3400121830
 C        -1.2575541357       -0.6669921485       -4.2707737619
 C         0.1041641729        0.7781110760       -2.5572572624
 O        -2.2557924522       -1.0090252350       -0.9041375636
 O         0.5639954702       -1.7111835472       -1.3072043692
 C         1.0068259982       -3.9373909236       -2.7781516493
 C         0.2320255063       -5.0822320188       -2.0841965236
 C         0.5048590360       -6.5823989786       -2.4543120285
 C        -0.8439053061       -7.3180908481       -2.4485906691
 C        -1.4826967593       -7.8606401750       -1.2449011927
 O        -0.5741828072       -4.8527862704       -1.1805432049
 O        -1.4687683053       -7.3255248687       -3.4879547492
 C         1.1499987332       -6.7740151568       -3.8562347166
 C         1.4732559083       -7.0383618568       -1.3703765066
 H         7.1704034651       11.2758918008       -2.3368313660
 H         6.4698146138       10.7082048229       -3.7669009367
 H         5.4081428963       11.5789157357       -2.7321962321
 H         4.0647409489        7.5363426230       -0.8984143271
 H         4.5423215759        6.6244747413       -2.2026543979
 H         6.3648205653        6.7244102552       -3.6532446376
 H         6.8687351425        8.1976898413       -4.4211852385
 H         5.2153417239        7.9088412333       -3.8170752663
 H         8.3437964329        9.1190307176       -1.0248805028
 H         8.7170437409        7.7227687151       -2.0899421368
 H         8.4176721897        9.3238339306       -2.7677405411
 H         5.2730237112        4.7540521268       -0.9576678781
 H         4.8547749613        5.3748430758        0.5643114689
 H         2.1913936471        1.9064916753        0.7088380793
 H         3.7604264322        2.3245890658        0.5890780399
 H         1.1887633443        6.4605120208        1.7072781316
 H         1.9564177177        7.1461354614        0.1871003416
 H         2.9060159500        6.8713776648        1.6551224588
 H         0.0272178237        4.6643153180        0.8619618407
 H         0.6261888662        5.2111399922       -0.8198274170
 H         0.5825986588        3.5595028576       -0.4001938638
 H         2.5082400378        2.0159264876        3.4293587380
 H         4.1375901712        1.6884057870        2.8608401633
 H         0.7339280283        0.9920718696        3.2173393926
 H         0.0526064951        0.7332278080        1.6129505828
 H         4.0282940694       -2.1197365440        3.7527709984
 H         3.1070058537       -2.8825114541        2.5403847361
 H         2.4937680955       -2.8349237056        4.1764734595
 H         1.9965516941        0.7387191430        4.7007270214
 H         1.4603562533       -0.9690997271        5.1365159320
 H         3.1061886597       -0.5872001960        5.2334998563
 H        -1.6013089568       -0.8292650067        2.8671060548
 H        -1.1160786925       -0.1103041195        4.3718965341
 H        -6.0080280572       -0.9201207598        4.1964719080
 H        -5.3323308744       -0.6544195134        2.8086057716
 H        -4.0534021499        2.0820475430        5.8218437118
 H        -2.7142632778        2.9382060624        4.8160936586
 H        -2.5688176931        1.2507432699        5.8346485797
 H        -4.3118618625        2.7584742219        2.6272827066
 H        -5.3220003857        1.3919854457        2.4609029523
 H        -5.3552106639        2.3253742142        4.0875759514
 H        -5.8387094134       -3.2359041870        3.3905378284
 H        -4.5054770333       -3.0771596591        4.3727176321
 H        -6.5211293969       -4.7361821532        0.5422928309
 H        -6.0848783591       -3.0578666284        0.8561444973
 H        -2.2545434891       -5.7453177995        2.9277501524
 H        -1.7962104833       -4.4980173192        1.6126926688
 H        -2.4556849204       -6.1011226746        1.2653924290
 H        -4.7904251397       -6.5153423878        2.2394768790
 H        -4.7391116334       -5.6278389592        3.6825757159
 H        -5.9654633360       -5.2196847347        2.4454917354
 H        -5.4417464125       -4.0267195109       -1.9387147046
 H        -7.1278939571       -3.9779172208       -1.4919888268
 H        -5.1786497956        1.2998795363       -3.1226391563
 H        -5.1667003355        0.4462401106       -1.5770096529
 H        -6.4151107211       -2.3707984594       -5.0521846997
 H        -7.2700712996       -3.3869392945       -3.9321916714
 H        -5.5099844023       -3.3922271060       -3.9139621597
 H        -8.3348870295       -0.9516533118       -3.3792435238
 H        -7.6761920366        0.1700129278       -2.1379620667
 H        -7.2873428382        0.3576437813       -3.8808077887
 H        -2.9793319788        1.6268046219       -1.7294866050
 H        -2.6498918385        1.2963106884       -3.1793100914
 H        -0.8390662667       -3.2426701705       -3.7112591944
 H         0.6401415896       -2.3396230051       -4.1492357935
 H        -0.4939221599       -0.6772812217       -5.0797356542
 H        -2.0074832661        0.0848524824       -4.4793572374
 H        -1.8672822685       -1.6492078179       -4.3906677790
 H        -0.4625213756        1.6472505836       -2.7738107741
 H         0.2883666647        0.9042428221       -1.4442693721
 H         1.1111003483        0.8589513042       -2.9167173282
 H         1.5610886182       -4.3976513806       -3.6115331377
 H         1.6746626444       -3.2957626264       -2.0979616925
 H        -2.2382972699       -8.5208606146       -1.6075298063
 H        -0.8599142777       -8.3972382938       -0.5765963733
 H        -1.9688876322       -7.0854418937       -0.6870358018
 H         0.7232116547       -6.1463007547       -4.6174699651
 H         1.0595316098       -7.8135598345       -4.1460944207
 H         2.1825641293       -6.5890967028       -3.8408673001
 H         1.5821781527       -8.0571615887       -1.4205189435
 H         2.4186433629       -6.4723632419       -1.3960111213
 H         1.1232936317       -6.7787080895       -0.3407365656
 Na       -0.9076812981       -2.5100058680        0.2243615542
