155

 C       -12.2328658149       -1.7729911703        1.1655557308
 C       -11.0285742552       -2.3309917998        1.8773788527
 C        -9.8459089686       -1.4432042273        2.5472254246
 C        -8.4571788331       -1.8361847795        1.9679570431
 C        -7.7358512416       -3.0317338539        2.5370475757
 C       -10.2921713697       -0.0201049168        2.3471408664
 C        -9.9155270420       -1.9300906100        4.0981459121
 O       -10.9410541398       -3.5536217585        2.0077436360
 O        -7.9434698443       -1.0967686430        1.1155272536
 C        -6.5913275469       -3.5839683361        1.6834807232
 C        -5.3049456981       -4.0513757813        2.4945761542
 C        -4.3153378587       -5.1177688033        1.8032799317
 C        -4.1231148680       -4.7348853812        0.2257285773
 C        -3.4683042667       -3.3588812810       -0.0210023509
 O        -5.1942928688       -3.7612402481        3.7104431860
 O        -4.5040204236       -5.4178684453       -0.7196683749
 C        -3.0227676897       -5.0208372032        2.6118419564
 C        -4.9675941373       -6.5911121744        1.8871340670
 C        -3.8346819838       -2.9537667621       -1.4656648180
 C        -2.8664120780       -2.0353890007       -2.0290053171
 C        -2.8740357615       -1.7928496430       -3.6303205060
 C        -2.7723930045       -0.2682438999       -3.7603311665
 C        -3.9563887340        0.5781982418       -4.1535128545
 C        -1.6760532918       -2.4729789461       -4.1730379610
 C        -4.1078903188       -2.4203972109       -4.3373455558
 O        -1.9284929857       -1.4781148225       -1.4527316236
 O        -1.7539150150        0.3227499474       -3.5544389008
 C        -4.2836787812        1.4774643625       -2.9993069997
 C        -5.1011897878        0.8906759315       -1.8195384601
 C        -5.6157998002        1.9266657734       -0.7666595340
 C        -4.4625526297        2.2841094526        0.3085748534
 C        -4.0416913241        1.2161225601        1.4391437386
 O        -5.1320469845       -0.3245175125       -1.7213155421
 O        -3.9146588697        3.3490556596        0.1926279306
 C        -6.2921293711        3.1613143661       -1.5421161357
 C        -6.7761704906        1.2810139743        0.0596839550
 C        -2.7217596987        1.5226714761        2.1252083124
 C        -1.4975388597        1.2382562547        1.3200248141
 C         0.0130874590        1.3022468214        2.0119133547
 C         1.0175691914        1.8716266329        0.8867089093
 C         1.1798718441        3.3376420633        0.6128976299
 C         0.0857338745        2.1059469159        3.3361830424
 C         0.3116255035       -0.1186033547        2.2665062634
 O        -1.6197589287        1.0275155778        0.1221163833
 O         1.4930306769        1.0657486126        0.0908402006
 C         2.0689250558        3.5415163565       -0.6468911067
 C         1.6981541406        2.6720035543       -1.9690495586
 C         2.8214433414        2.1531971013       -2.8287464461
 C         2.7999172551        0.4912509282       -2.5614286315
 C         4.0857520795       -0.1743125087       -2.1344390094
 O         0.5559975222        2.4008922196       -2.1822126737
 O         1.7230333208       -0.0936593878       -2.7928207105
 C         2.5723846000        2.4084087423       -4.3556392559
 C         4.1503240737        2.6982751903       -2.5081052094
 C         4.0671435867       -0.9271444259       -0.8041517436
 C         5.0527033869       -0.4280322474        0.3740732626
 C         6.6123410449       -0.6950447329        0.3855279884
 C         7.3937676287        0.6489715108       -0.0461822169
 C         8.8861163342        0.7980040540        0.3592422464
 C         6.9809329967       -1.1863916073        1.7784805300
 C         7.0610804555       -1.8620560847       -0.5639811985
 O         4.4594310818       -0.0919478727        1.4358783055
 O         6.8676175561        1.5612419085       -0.6159637020
 C         9.3784226229        2.1390716038       -0.1300186614
 C        10.5370115046        2.6886932505        0.8119501726
 C        11.4881991268        3.8283563265        0.3808452696
 C        12.6707038081        3.0001218442       -0.1644434176
 C        13.7927609138        2.6981649703        0.8373643359
 O        10.7102659161        2.0984449305        1.8752281706
 O        12.5870777476        2.4530858786       -1.2466955904
 C        10.8339016887        4.7683752727       -0.6552438534
 C        11.9454625198        4.6657000788        1.6763250714
 H       -13.1005139799       -2.1970947236        1.6590536175
 H       -12.2421901329       -0.6928940718        1.1107631015
 H       -12.2158433869       -2.1220021109        0.1428303384
 H        -7.3484040342       -2.7725959022        3.5368067201
 H        -8.5823152021       -3.8134730736        2.6903676939
 H        -9.4724031876        0.5369744381        2.8176631901
 H       -11.1932503055        0.1625614618        2.9638950246
 H       -10.3767555120        0.3114616125        1.3396284657
 H       -10.9110758137       -1.6145888642        4.5647094124
 H        -9.8258221669       -2.9966300066        4.1305767836
 H        -9.0709292425       -1.5552581053        4.7111714534
 H        -6.8136999431       -4.5443071167        1.1942324296
 H        -6.2217386920       -2.8821736635        0.9360697592
 H        -3.8266014345       -2.7277941945        0.8167554192
 H        -2.3197545558       -3.3398571282        0.1588885885
 H        -2.2136181108       -5.8322035064        2.5281928093
 H        -3.2926325137       -5.2083402516        3.6599863907
 H        -2.4782714075       -4.1905861968        2.7225116307
 H        -4.2498029762       -7.3719894850        1.5876790332
 H        -5.3173675966       -6.8574554728        2.8479046979
 H        -5.7632344976       -6.5093559428        1.1296652892
 H        -4.7858237465       -2.4602368213       -1.4798194539
 H        -3.7494551843       -3.9280600268       -2.1290686963
 H        -3.7857178318        1.2106099465       -5.0148362155
 H        -4.8627304750       -0.0527498832       -4.2891629916
 H        -1.5381512526       -2.4674156543       -5.2670830382
 H        -1.6558881487       -3.6116007981       -3.8677347832
 H        -0.7871760928       -2.0761993523       -3.7639431551
 H        -4.1293327056       -3.4363688467       -3.9308670567
 H        -5.0326337130       -1.9942560351       -4.1957337091
 H        -3.9174559009       -2.5215244672       -5.3827439277
 H        -3.5163715631        2.1657168679       -2.5714178881
 H        -4.9515677423        2.3350784509       -3.4308265023
 H        -4.7839319142        1.3115796014        2.1545253882
 H        -4.0010347468        0.1811301165        1.0133665523
 H        -5.5364335538        3.7416814482       -2.0665443743
 H        -6.6523199833        3.8574293181       -0.8063015823
 H        -7.0131276104        2.7128767713       -2.2021241552
 H        -7.5902152859        1.0659546951       -0.6548407937
 H        -6.6170565357        0.3985712087        0.5793232675
 H        -7.2543737058        2.0046228350        0.6807263412
 H        -2.5168266683        0.9610853482        3.0470261274
 H        -2.7590365371        2.5832596965        2.4726190969
 H         0.1551689992        3.7385893666        0.6075062565
 H         1.7313117341        3.9003671558        1.4875574785
 H        -0.2748696767        3.1562232245        3.1762436015
 H         1.0655303110        2.0903821738        3.8422376294
 H        -0.6593954122        1.6508127773        4.0885046984
 H         1.0105067664       -0.4698567427        2.9600478486
 H        -0.6619217979       -0.4144635565        2.7755048659
 H         0.3920557456       -0.7631248101        1.3653189409
 H         2.1541797686        4.6574429085       -0.8727742111
 H         3.0550000814        3.2838616698       -0.3794013532
 H         4.3761214660       -0.8997359282       -2.9127621800
 H         4.8438819705        0.6476882218       -2.1144555880
 H         2.3327058924        3.4423885658       -4.4448739244
 H         1.7718942360        1.8374822071       -4.6663018233
 H         3.4625240984        2.1490698640       -4.9527700194
 H         4.8974935225        2.3654818527       -3.2158341667
 H         4.0798597760        3.7820828373       -2.6945298443
 H         4.4813982920        2.4308096672       -1.4295968039
 H         4.2973171006       -1.9766561863       -0.9861573584
 H         3.0914375785       -0.8276084774       -0.2846298526
 H         9.0195835003        0.6715314687        1.4497681779
 H         9.5935607243        0.1063804484       -0.0814376130
 H         6.6708476511       -0.6245156797        2.7078822275
 H         8.0356311928       -1.3998122542        1.8648141954
 H         6.5911073737       -2.2193374888        2.0586433060
 H         7.0179507646       -1.7266695653       -1.6207043642
 H         8.0064625559       -2.1918069705       -0.2557815748
 H         6.3191643195       -2.7044282448       -0.3767735181
 H         9.7024885060        1.9192014730       -1.1218885541
 H         8.5463649050        2.9079049589       -0.0502212411
 H        13.5494250400        2.8783905474        1.8557348508
 H        14.0448243051        1.6887246745        0.6794193947
 H        14.6205201931        3.3125878870        0.5854035376
 H        10.4287783069        5.6666680769       -0.1302007504
 H        10.1007381845        4.2453511846       -1.2146263345
 H        11.5549540903        5.1866769032       -1.3549300710
 H        12.7398429987        5.3326649656        1.3499516550
 H        11.2159830576        5.2223514920        2.1446478258
 H        12.3538102208        4.0074759564        2.4377111379
 Na       -0.4205892972        0.3431920701       -1.6918029785
