155

 C         8.1058245859       11.9195942046        0.8404982770
 C         6.8505626084       11.0054422406        1.0860131485
 C         5.9579463905       10.5505419716       -0.1243634290
 C         5.6862175042        9.0722316144       -0.1238860592
 C         4.3266425716        8.5600689226        0.6776260046
 C         4.5970317141       11.3688080763        0.2121824006
 C         6.5444862546       11.3281661859       -1.3693764521
 O         6.3662628878       10.6597730010        2.1577062230
 O         6.4267028238        8.2596926758       -0.6597939243
 C         4.6461164507        7.2168969489        1.2190288663
 C         3.2255602692        6.4791629911        1.5204680032
 C         3.1243340257        5.6708208638        2.9593692937
 C         3.5007406903        4.2683296532        2.4191980320
 C         2.3991125479        3.3199724488        1.6834272565
 O         2.3342501862        6.4717667128        0.7282788708
 O         4.5969268281        3.7935456174        2.5732915903
 C         4.1526547689        6.1984564161        4.0547005868
 C         1.6599213733        5.6674449545        3.5212224464
 C         1.6258317559        2.4569827397        2.6774507244
 C         1.0282457982        1.1900624752        2.0326183929
 C         0.3665301891        0.0263650106        2.9683553055
 C        -0.7051076649       -0.6856406598        1.9845407707
 C        -1.7474180738        0.1936500001        1.3533272082
 C         1.5137922964       -0.8761245252        3.5310168143
 C        -0.3251973400        0.7311731675        4.1441104502
 O         1.3002916899        0.8952226582        0.8863978207
 O        -0.6194391312       -1.8845337409        1.8000656860
 C        -3.0523416318        0.0222756111        2.0459622339
 C        -4.2893601079        0.6358590779        1.3672263150
 C        -5.5903158310        0.7032409776        2.1812845969
 C        -6.0500139616       -0.7941721565        2.4210329679
 C        -6.1800288869       -1.4661772307        1.0849044000
 O        -4.1565637684        1.1127595716        0.2887921560
 O        -6.2656792888       -1.2467567437        3.5497974976
 C        -5.4405349956        1.3959378079        3.5246584171
 C        -6.7068478236        1.4163494474        1.4260995647
 C        -5.9716033896       -2.9795177624        1.1323223417
 C        -4.5322892038       -3.5121007371        0.8954408722
 C        -4.2928812504       -4.9794863823        0.8567743816
 C        -3.8592006378       -5.2957174808       -0.7219549996
 C        -5.1564003621       -5.8638647239       -1.6226286206
 C        -3.1551308543       -5.2944365018        1.8745065581
 C        -5.4348385467       -5.8846968253        1.2380350538
 O        -3.6109242375       -2.7560278648        0.7112640608
 O        -2.7800389432       -5.2490571741       -1.1851285001
 C        -4.8281509895       -5.9016589842       -3.1077339519
 C        -5.6246803499       -4.9054704375       -3.8491723751
 C        -5.2271548304       -4.4416809116       -5.3223182508
 C        -4.1623640278       -3.2813184778       -5.2698819873
 C        -4.4825218248       -2.1061900044       -4.4437457684
 O        -6.5597921006       -4.3182932077       -3.3029274159
 O        -3.1145639317       -3.3427277807       -5.8832612054
 C        -4.6011853118       -5.6049941547       -6.1241870891
 C        -6.3895620817       -3.8429889870       -6.0966041138
 C        -3.1505585409       -1.3032504245       -4.0527349071
 C        -2.1089194561       -1.9929815351       -3.1223003808
 C        -0.5905096842       -1.9697078836       -3.4385093100
 C         0.2332838731       -1.7304566442       -2.1003381721
 C         1.7822614855       -2.0569850854       -2.1695377179
 C        -0.3275682483       -3.4385841522       -3.9952779389
 C        -0.1027523032       -0.8353390152       -4.5370978150
 O        -2.4682863472       -2.6271533398       -2.1765808800
 O        -0.2711071836       -1.2138401985       -1.1915569796
 C         2.3008365913       -2.6760348257       -0.8918010759
 C         1.6920871269       -4.1057202399       -0.5635288937
 C         2.9027407783       -5.3167755081       -0.4344458050
 C         3.3033508144       -5.1483253920        1.1704863736
 C         4.8020839149       -5.0598054002        1.4438995305
 O         0.5471825326       -4.3814342108       -0.6675885124
 O         2.4715572443       -5.2314028877        2.0008314151
 C         2.3485338053       -6.7637220824       -0.6238768826
 C         4.1183612642       -5.0363836043       -1.3940907599
 H         8.0335789638       12.5880809190        1.7427732568
 H         9.1004088560       11.4431507365        1.0315969909
 H         8.1325751745       12.4464759915       -0.1643381840
 H         4.2805195573        9.4009045985        1.4365499509
 H         3.4629204990        8.6427728018        0.0176290015
 H         3.8109455787       11.1635066541       -0.4525199577
 H         4.9581548916       12.3852447493        0.1139306907
 H         4.2549541306       11.2473776267        1.2244431037
 H         7.5900981410       11.0380447810       -1.6003575018
 H         6.0132145482       11.2001011736       -2.3080169648
 H         6.4432362293       12.3716139858       -1.2722040233
 H         5.3097979915        6.6618815967        0.5411178224
 H         5.2609013361        7.2959028183        2.1303842956
 H         1.6652867129        3.9596600719        1.2434802460
 H         2.8709295315        2.7414642408        0.9044399333
 H         5.1304376677        6.3207238977        3.5984368704
 H         4.0741049223        5.6011195733        4.9008221073
 H         3.7844881631        7.1910832624        4.2687840614
 H         1.6739590922        4.9354123533        4.2835492097
 H         1.2846909074        6.5878551452        3.9434700517
 H         0.9395367986        5.3770684050        2.7448674873
 H         0.8981414900        3.0433274684        3.2505742430
 H         2.3061632687        2.0567252249        3.3579777970
 H        -1.3728523133        1.2133676422        1.4817957603
 H        -1.7342802983        0.0355765874        0.2151405051
 H         2.4909165121       -0.3802311367        3.5523056354
 H         1.6488924619       -1.7376294736        2.8106986804
 H         1.2547127476       -1.2598638157        4.5059753410
 H        -1.0274695170        1.4633634353        3.7815516001
 H        -0.8083812168        0.0738068354        4.8161595883
 H         0.4638980012        1.1826697226        4.8019869361
 H        -3.2906136975       -1.0095642963        2.0286097797
 H        -3.1263729630        0.2880104274        3.1168906640
 H        -7.0667342520       -1.2921580772        0.5199784508
 H        -5.4994732332       -0.9711245756        0.3566087453
 H        -5.0567301706        0.6428887207        4.1824099866
 H        -6.3798811435        1.6196699176        4.0045870159
 H        -4.9430212400        2.2822827699        3.3730443044
 H        -6.3837860915        2.3978146676        0.9734035891
 H        -7.0339142003        0.7018788638        0.6625521031
 H        -7.5161544920        1.4671321095        2.0730928140
 H        -6.5214972975       -3.4773094984        0.3514501165
 H        -6.2947670474       -3.2708374092        2.0655841058
 H        -5.2118384704       -6.7709919644       -1.2359453574
 H        -6.0240198029       -5.1952034213       -1.5991412888
 H        -3.3841489390       -4.8317997690        2.7814609214
 H        -2.2123031994       -4.8978309428        1.5377299517
 H        -2.8685404693       -6.3222905741        2.0305452133
 H        -5.1405336702       -6.9052138197        1.0764595335
 H        -5.7483799408       -5.6587234535        2.2454830676
 H        -6.4108764986       -5.7729336805        0.7746432798
 H        -3.7829294895       -5.9534548652       -3.3981634124
 H        -5.2347637652       -6.7991436915       -3.4890127805
 H        -5.1270474877       -1.4345691214       -5.0628575527
 H        -5.0330964206       -2.3998579846       -3.5463650279
 H        -4.6933706794       -5.4075173831       -7.1792309602
 H        -4.9937133354       -6.6223542267       -6.0509878736
 H        -3.5337234218       -5.7659105252       -5.9973887218
 H        -7.1017042366       -4.6880401133       -6.3790199135
 H        -6.9827443060       -3.2113153542       -5.4193049798
 H        -6.0485334348       -3.2581272872       -6.8960315240
 H        -3.4509744957       -0.3089376354       -3.6144478965
 H        -2.4821365007       -1.0604999848       -4.9767768666
 H         2.1212786946       -2.8153291951       -2.8974626842
 H         2.3500847361       -1.1132476178       -2.4249941800
 H        -0.8507097602       -3.6307203266       -4.8586905152
 H        -0.6951306599       -4.1627661453       -3.3193254534
 H         0.7175446704       -3.5043730353       -4.2708654437
 H        -0.3026716099       -1.1569881760       -5.6362446698
 H        -0.6007124759        0.1360574027       -4.4395517535
 H         0.9966345829       -0.6529392836       -4.4071752357
 H         3.4074132231       -2.6354243052       -0.9419204092
 H         2.0786909227       -1.9883022690       -0.0176412016
 H         5.3219076231       -4.4535079905        0.6571484583
 H         5.0847050912       -4.4569988064        2.2962580909
 H         5.2861177689       -6.0499389454        1.5307180793
 H         1.6174410061       -6.9937854103        0.1009443243
 H         3.1012594994       -7.5084937435       -0.3417980691
 H         1.9912774628       -6.7867697317       -1.6039016980
 H         4.9244013578       -5.7930835919       -1.2841284214
 H         3.6423281032       -5.1504109688       -2.3144203830
 H         4.5118769541       -4.0562034345       -1.2446051943
 Na       -1.3896291137       -2.9427680925       -0.0927172085
