155

 C         7.9544010977        9.9954029937        1.5509078589
 C         6.9294813984       11.0885174658        1.3054414679
 C         5.7796976819       10.6715300615        0.1582350480
 C         5.5457505914        9.1560792969        0.2772401340
 C         4.6710560590        8.6067754311        1.4193940444
 C         4.4978485815       11.5880223299        0.4670733903
 C         6.4575187202       10.8803824510       -1.2859346276
 O         6.9885033009       12.1216381667        1.8618983814
 O         5.9411274495        8.4560322743       -0.5832289863
 C         4.4103860063        7.0809102549        1.3487739214
 C         3.0821849201        6.6646852641        2.0002483564
 C         3.1880882208        6.0398912697        3.4780369737
 C         3.3761031210        4.5018019271        3.1738485445
 C         2.3274282047        3.7532416824        2.4452595247
 O         1.9975621738        6.9355453182        1.5352175769
 O         4.2560963988        3.8991897293        3.6780478460
 C         4.4226841808        6.4889973606        4.3060578100
 C         1.9284064930        6.0554484237        4.3356675219
 C         1.9435680693        2.3816998345        3.1047468282
 C         1.1136723512        1.4612377820        2.2026547192
 C         0.5312752951        0.1965056956        2.8294644413
 C        -0.6506263535       -0.2763262076        1.8270848535
 C        -1.7741348488        0.7464643350        1.5556115046
 C         1.6207346046       -0.9321367941        3.0288373218
 C        -0.2586571902        0.3323134704        4.2204374775
 O         1.0268864616        1.6080364598        0.9608079604
 O        -0.8297457200       -1.3990088694        1.4197657956
 C        -3.1521333036        0.1107383661        1.8099205703
 C        -4.2363173813        0.6964292337        0.9039879027
 C        -5.8112350356        0.3333715231        1.4366651205
 C        -5.8083446792       -1.2322524059        1.6259585911
 C        -6.1906269962       -1.9597685950        0.3278472354
 O        -4.0409804067        1.2620260865       -0.1781354340
 O        -5.4115697819       -1.7843256337        2.6288220650
 C        -5.9006960200        1.0248776299        2.8432185329
 C        -6.9107900927        0.9209866367        0.4181400108
 C        -6.0786641257       -3.4772204390        0.5244075083
 C        -4.5411542455       -3.8816715938        0.6491040095
 C        -4.0794892106       -5.3583010631        0.5739810849
 C        -3.5838981722       -5.6437802157       -0.9149167937
 C        -3.9571541187       -6.8703298695       -1.8985001306
 C        -2.8511034416       -5.4403442742        1.6007375719
 C        -5.2007644990       -6.3740530248        0.9932781662
 O        -3.7291282443       -3.0117816546        0.7204698582
 O        -2.7070873043       -4.9398139856       -1.3106168793
 C        -3.8529770823       -6.4464144842       -3.3601869919
 C        -5.0794534115       -5.5289393020       -3.8526510215
 C        -5.0523403991       -5.1097868835       -5.3547025729
 C        -3.9437261785       -4.0263512942       -5.4165799982
 C        -4.2578944155       -2.5833439546       -4.8633194713
 O        -5.7822244264       -4.9112078723       -3.1221794264
 O        -2.8202497116       -4.3940826964       -5.7999170383
 C        -4.8450178695       -6.2580139458       -6.3316213546
 C        -6.5027962492       -4.5017630978       -5.6781281179
 C        -3.0829954178       -1.5774924300       -4.7154001233
 C        -2.1936007381       -2.0110887204       -3.5162113654
 C        -0.6644168874       -1.9029556519       -3.6819149871
 C        -0.0092657111       -1.3387522863       -2.3602116277
 C         1.4468944453       -1.5394554347       -2.0394931029
 C        -0.2500684082       -3.4144508948       -3.9044797462
 C        -0.1752492582       -1.0290993037       -4.8531262496
 O        -2.6883777825       -2.4438031104       -2.5124724697
 O        -0.7462786315       -0.8903219079       -1.5073840008
 C         1.7593251931       -1.8807707504       -0.5918852065
 C         1.5970473460       -3.3482017486       -0.2819722561
 C         2.8213447952       -4.3005013002        0.1349798127
 C         2.6367735465       -4.8078548948        1.5467864262
 C         3.6410587582       -5.7295854648        2.0056168244
 O         0.5097159442       -3.8350448149       -0.4334748527
 O         1.7891661705       -4.4423090993        2.2850517047
 C         2.7145502594       -5.5066935367       -0.8562130518
 C         4.1493917846       -3.6521263534       -0.1344454849
 H         8.8536037197       10.2968378017        1.0895619439
 H         8.2761370039        9.9919936973        2.5782603686
 H         7.7771645734        9.0687324400        1.1018688109
 H         5.2958722576        8.8104359342        2.2891968140
 H         3.7387871222        9.1384949421        1.5022937625
 H         3.6764174470       11.5715666442       -0.3311360973
 H         4.8009931899       12.5809681332        0.6466511102
 H         4.0459118166       11.2142962860        1.4295150233
 H         7.3791090521       10.4146200405       -1.4270372935
 H         5.8076293512       10.6977575262       -2.1259850017
 H         6.6618035389       11.9497411225       -1.2818836112
 H         4.3222393032        6.8876161911        0.2931710243
 H         5.2695716590        6.4630092778        1.7664467293
 H         1.4228124229        4.4388576320        2.3105000683
 H         2.7341723192        3.4979950991        1.4379861207
 H         5.0996404681        5.6887419386        4.6414096947
 H         4.0735039551        7.0201521967        5.2626787947
 H         4.9770690503        7.3803626935        3.9833433239
 H         2.1236014608        5.6085405968        5.3324388190
 H         1.5759255601        7.0634847555        4.3510961985
 H         1.0541041750        5.5686591647        4.0682860170
 H         1.3348076871        2.5572338406        4.0832489934
 H         2.7891080022        1.7801864591        3.3636903960
 H        -1.5152342834        1.5720539527        2.1701627033
 H        -1.7965857137        1.1236743691        0.5235045750
 H         2.5860250734       -0.4405692396        3.3939569530
 H         1.7914590057       -1.4944046802        2.0953005758
 H         1.0886804277       -1.6508993861        3.7491938211
 H        -1.0310121679        1.1046005645        3.9736276145
 H        -0.7529744561       -0.5592912667        4.5169153812
 H         0.2979651565        0.6852038092        5.0353260846
 H        -3.2176849070       -0.9288645279        1.5544605651
 H        -3.4425880849        0.1633982343        2.9102052484
 H        -7.2077510281       -1.6552484200        0.2950005654
 H        -5.5309581030       -1.5680451861       -0.5334461464
 H        -5.1386360025        0.6117403961        3.4890283352
 H        -6.8480018354        0.9460914629        3.1845221942
 H        -5.5955825637        2.1699401105        2.9075791994
 H        -6.8987407211        1.9846461996        0.4494115183
 H        -6.6444823520        0.5594118105       -0.5623354372
 H        -7.9614650526        0.5519168687        0.5913331546
 H        -6.3951768636       -3.9174956277       -0.5202019733
 H        -6.6788958597       -4.0764207783        1.1880943353
 H        -3.0319890159       -7.5327036419       -1.6871433003
 H        -4.7777187478       -7.4540334693       -1.4962308591
 H        -3.1514138660       -4.7370305016        2.4546898756
 H        -1.9641683582       -4.9378824213        1.2189802169
 H        -2.5660125623       -6.4382699643        1.8893507763
 H        -4.9703816064       -7.4054864350        0.6023662884
 H        -5.3665847024       -6.3868764088        2.0440637616
 H        -6.1620428883       -6.0130686588        0.5374065518
 H        -2.9916800521       -5.7135660498       -3.5104670510
 H        -3.6590595587       -7.2569521561       -4.0935616948
 H        -5.0252268064       -2.0362393322       -5.4684372402
 H        -4.8074020042       -2.6833799723       -3.9553544904
 H        -5.2266800043       -6.1238475201       -7.3835494923
 H        -5.3181309243       -7.1769935484       -6.0200152457
 H        -3.8001979079       -6.4365890514       -6.3271114892
 H        -7.1884644590       -5.3083756928       -5.4800233645
 H        -6.7974255668       -3.6460520155       -5.1407608538
 H        -6.4846573339       -4.2740160572       -6.7923018770
 H        -3.4514292011       -0.6191848385       -4.3994345783
 H        -2.6200642470       -1.4155196130       -5.6382708614
 H         1.8479802615       -2.1864147244       -2.8157097917
 H         1.8738528060       -0.5326480093       -2.1914423279
 H        -0.8296093425       -3.9609014336       -4.7244471675
 H        -0.2916104702       -3.9838562205       -2.9561020584
 H         0.8118386219       -3.4838820156       -4.0941454009
 H        -0.4632336925       -1.4064978431       -5.8030251935
 H        -0.7195237904       -0.0275987458       -4.8222983309
 H         0.9255595545       -0.9967459717       -4.8325514501
 H         2.8324221825       -1.6093637423       -0.3688631458
 H         1.0675178493       -1.2961794912       -0.0205593075
 H         4.5234743521       -5.1400021496        2.2295561518
 H         3.4521440917       -6.2746239032        2.9301620086
 H         4.0575183570       -6.4645925014        1.3333782430
 H         1.8143673565       -6.1622790984       -0.7503040775
 H         3.6418070374       -6.1026806459       -0.9719686617
 H         2.4376002552       -5.0545284064       -1.8625844497
 H         4.8632946584       -4.4422065187       -0.4235798747
 H         4.1186833669       -3.0021804996       -1.0218242049
 H         4.5217289665       -3.1418296302        0.7339883535
 Na       -1.6166778180       -2.8540515539       -0.4847944089
