155

 C         8.1919439527        9.5673363488        1.4928306004
 C         6.7602745037       10.0916042139        1.5646811624
 C         5.6894646783       10.0130354137        0.4188122375
 C         5.1022459516        8.5466267420        0.4044895808
 C         4.2854466791        8.3394288373        1.7642683105
 C         4.5750066784       10.9434228186        0.7050285704
 C         6.2961410043       10.3271662395       -0.9990718096
 O         6.3915802644       10.3789932836        2.6421432507
 O         5.3914789822        7.6776961428       -0.3785282163
 C         4.0019473032        6.8502200674        2.0962954150
 C         2.7417789396        6.7271711598        3.0272653179
 C         2.8779702040        5.9723481915        4.4061544114
 C         2.9624570814        4.3777741346        3.8742781535
 C         1.7409960050        3.9288442672        3.0061588019
 O         1.6825500541        7.1401529543        2.5891385224
 O         3.8716264368        3.6883942714        4.1475848201
 C         4.2869529661        6.3085800255        5.0205891138
 C         1.6715889132        6.0958874496        5.2392472893
 C         1.3575674398        2.4292898534        3.1804621010
 C         0.3347868765        1.8406914898        2.1620464859
 C        -0.6398248288        0.7687984217        2.7296310813
 C        -1.3299962981       -0.0937650592        1.4592939162
 C        -2.4350194926        0.6126608456        0.7270284802
 C         0.0295055089       -0.4057649247        3.5238887935
 C        -1.7029288883        1.4669200777        3.7036433278
 O         0.2330009233        2.2663661204        1.0093566238
 O        -1.0900348382       -1.2866195662        1.2791894796
 C        -3.8215833430        0.4573425879        1.4473213371
 C        -5.0573328861        0.6272525379        0.5303261478
 C        -6.3080339262       -0.0399842779        1.1350862999
 C        -6.0867997788       -1.6371466379        1.1147009636
 C        -6.5073794838       -2.4020889264       -0.0975281014
 O        -5.0853795324        1.1468847462       -0.5660406059
 O        -5.5569626734       -2.2131410889        2.0482507945
 C        -6.5644153562        0.4428321898        2.6097775999
 C        -7.4928621907        0.3022105701        0.2416395787
 C        -5.6882404070       -3.7586050877       -0.2019578523
 C        -4.1230413094       -3.6086083995       -0.0215664351
 C        -3.1232056184       -4.8735066394        0.6278139868
 C        -2.3346895498       -5.3320850800       -0.7171307518
 C        -2.7144368564       -6.6586348207       -1.3280967949
 C        -1.9947548366       -4.2383981684        1.6097491667
 C        -3.9413359026       -5.9421646322        1.3907204338
 O        -3.5844473389       -2.6747649087       -0.4632692465
 O        -1.4493152072       -4.6998272369       -1.1757427375
 C        -2.9590463453       -6.4165090072       -2.7941614742
 C        -4.4196252129       -6.0458696374       -3.1184922926
 C        -4.6634326469       -5.6327766581       -4.5769105820
 C        -3.4427103853       -4.6382615104       -5.1734568973
 C        -3.6316579612       -3.1332962359       -5.2214978117
 O        -5.3390316815       -6.0317754516       -2.2550023785
 O        -2.4690796960       -5.1304070823       -5.5851255289
 C        -4.6823095135       -6.9166687192       -5.4103031983
 C        -6.0239688547       -4.9520486234       -4.6477519659
 C        -2.2600857896       -2.4216357089       -5.5195165304
 C        -1.5237026332       -2.1019515285       -4.1245832346
 C         0.0472086101       -1.7945018564       -4.1610246140
 C         0.4445255058       -1.0601236302       -2.8386086962
 C         1.9187171855       -0.7170822068       -2.7071046173
 C         0.7147936069       -3.1567193145       -4.2926527639
 C         0.3316121297       -0.8744215658       -5.4615937595
 O        -2.1160107962       -2.2664592939       -3.0972295165
 O        -0.4564160410       -0.6171243207       -2.1510366029
 C         2.5475045990       -1.3484113166       -1.4253218253
 C         1.9957183858       -2.7925552248       -1.0223826383
 C         2.9146498732       -3.6599252505       -0.0217127490
 C         2.0433473620       -4.0208466305        1.2637372279
 C         2.1032785913       -5.4003199156        1.7348967216
 O         0.9117554023       -3.1390155048       -1.3536638965
 O         1.5856307082       -3.1494511681        1.9246577155
 C         3.4142954767       -4.8201776545       -0.8678763358
 C         4.1705129307       -2.8719665055        0.5131213762
 H         8.8441112501       10.3245391578        1.9621127209
 H         8.3383551610        8.7011876388        1.9986246953
 H         8.5948011656        9.4348745861        0.5042049859
 H         4.5127660376        8.9575640834        2.6013814199
 H         3.1558397308        8.5964724555        1.4904681556
 H         3.8577682554       10.7884855215       -0.0944271030
 H         4.8699418566       12.0215688073        0.7458678606
 H         4.1097050041       10.6883446504        1.6732058559
 H         7.2435492746        9.7794311980       -1.1233292751
 H         5.5829438027       10.0210616427       -1.6968679377
 H         6.5445314728       11.3434561377       -1.0650701962
 H         3.7815803968        6.3121452562        1.1768159211
 H         4.9111344046        6.3950782589        2.4782556257
 H         0.8934190054        4.5421570068        3.1259514981
 H         2.0201379357        4.2103455320        1.9409898316
 H         4.1910087579        6.4111661076        6.1609012029
 H         4.6965444253        7.2913043379        4.6987946306
 H         5.1398560512        5.5526651966        4.8104648660
 H         1.5940894051        5.4229857518        6.0533524456
 H         1.4494794417        7.1555605265        5.4529285067
 H         0.7506489333        5.8191023906        4.6758462118
 H         1.0530178693        2.1626623471        4.2661941432
 H         2.2985479064        1.8485273617        3.0877432042
 H        -2.2578204188        1.6901376857        0.4591466397
 H        -2.4229070243        0.0324067719       -0.2193401160
 H         0.9101121923       -0.0341173374        4.1247711588
 H         0.4908401834       -1.0459360655        2.7614496751
 H        -0.7113703866       -1.0873239095        4.0714931636
 H        -2.2184737210        2.2570748685        3.3018498564
 H        -2.3639203473        0.7540543060        4.2511776922
 H        -1.0992809130        1.9249704253        4.4693093417
 H        -3.8779645927       -0.4419149140        2.0214676165
 H        -3.9937295346        1.2678955957        2.2158262551
 H        -7.5893313747       -2.5618751568        0.0016761068
 H        -6.4721077368       -1.8064329429       -0.9964822072
 H        -5.6646396314        0.4141404188        3.3748889475
 H        -7.3882197984       -0.0613699638        3.0650824556
 H        -6.7069233180        1.5789993998        2.5519072525
 H        -7.9765298508        1.2234867946        0.5327213239
 H        -7.2225578551        0.2738563614       -0.8018545925
 H        -8.2312772423       -0.3994500925        0.4447950945
 H        -5.9491140692       -4.3196747198       -1.0142023382
 H        -5.9628430636       -4.3874705651        0.6901553520
 H        -1.9863220691       -7.3601454551       -1.2099196669
 H        -3.7272546587       -7.0654484045       -1.0158689396
 H        -2.4529601345       -3.6932265182        2.4193598939
 H        -1.5139859016       -3.5012086975        0.9718656496
 H        -1.3038816062       -5.1338762160        1.7651921607
 H        -3.5881730497       -6.9616574715        1.3449332232
 H        -4.0097807974       -5.6268169894        2.4802081059
 H        -4.9770847174       -5.9299061212        1.1173653503
 H        -2.2826445953       -5.6626533026       -3.1226819901
 H        -2.8334792246       -7.3959508298       -3.3348507306
 H        -4.3695190743       -2.8673443103       -5.9833436229
 H        -3.9837603668       -2.8768027840       -4.2541508128
 H        -5.1609361974       -6.6923632285       -6.3106943075
 H        -5.4120628384       -7.5451520448       -4.8656412884
 H        -3.7022495727       -7.4330821590       -5.4730093225
 H        -6.7525099056       -5.6070689439       -4.1993858967
 H        -6.0367342935       -4.0440587503       -3.9735505684
 H        -6.2969632364       -4.6050853099       -5.5802554235
 H        -2.4065957003       -1.6064243691       -6.3069574892
 H        -1.6791671158       -3.2258275640       -6.1114146411
 H         2.5192858446       -0.9478072184       -3.5429897006
 H         1.9286374788        0.3319896671       -2.6838575859
 H         0.4292775926       -3.6432183445       -5.2061731380
 H         0.5870904607       -3.7613912517       -3.3987712478
 H         1.8157596393       -3.0358897595       -4.3459104502
 H        -0.2024550407       -1.2794927568       -6.3726299351
 H        -0.0544106075        0.1235280441       -5.3474590850
 H         1.4315880023       -0.8895585803       -5.6499453208
 H         3.6240391689       -1.4500350865       -1.5741416884
 H         2.5273491140       -0.6375877374       -0.5639929314
 H         3.1329782051       -5.7684585128        1.7479803806
 H         1.6288699733       -5.4914323964        2.6815690580
 H         1.7257553216       -6.2166979213        1.1133111790
 H         2.6856932638       -5.4629078516       -1.3775741616
 H         4.2442842990       -5.3602585492       -0.2915954653
 H         3.8593601052       -4.3164726395       -1.7543793948
 H         4.7183413733       -3.5066443259        1.1575634063
 H         4.9327101271       -2.5801927476       -0.2204269587
 H         3.9978414932       -2.0185914711        1.1894662727
 Na       -1.2371728165       -2.3872144244       -0.8022932665
