155

 C         8.2099101902        9.9501841664        1.3178769626
 C         6.8115660431        9.4682264819        1.8033358673
 C         5.7253556453        9.2504475373        0.6526033534
 C         4.9474219333        7.9165526479        1.0338515065
 C         4.0208796521        7.8926150934        2.2021128203
 C         4.7617839014       10.4939075333        0.5351188213
 C         6.4059332970        9.0678733158       -0.7518362624
 O         6.5896960333        9.2347622985        3.0093015436
 O         5.0240355658        6.9141529388        0.3750273666
 C         3.0795665919        6.5458515367        2.3787553480
 C         2.0961818972        6.6400920080        3.6214019256
 C         2.5215721481        5.6584904083        4.7863555815
 C         2.3972543882        4.1739951753        4.0035360624
 C         0.9276199228        3.8644287410        3.6088269582
 O         1.2978535591        7.5209612721        3.5979528144
 O         3.3328509274        3.4354244657        3.7801334467
 C         3.9325102567        5.9443044235        5.2182206144
 C         1.5048925752        5.8127543293        5.9852848795
 C         0.8939541884        2.4297479536        2.8471762664
 C        -0.4270113973        2.0832402697        1.9565953300
 C        -1.1990168533        0.7982685630        2.2273358489
 C        -1.8811015532        0.2457709118        0.8793274385
 C        -3.0529922551        0.8487917689        0.0569074950
 C        -0.1657709624       -0.2100292633        2.9244559458
 C        -2.2390578394        1.2969184664        3.3863999840
 O        -0.7026684433        2.9020270186        1.0934435327
 O        -1.4726278349       -0.8044170124        0.4479277518
 C        -4.4426570464        1.1584232651        0.7161133602
 C        -5.5907719547        0.4743794397       -0.0885385319
 C        -6.7629786207       -0.2295817297        0.6713510694
 C        -6.3244064163       -1.6626602009        1.2344678009
 C        -6.2266002531       -2.7356186888        0.1997400494
 O        -5.5675051831        0.5532460269       -1.3200279495
 O        -6.0191424174       -1.7334157606        2.4063692437
 C        -7.2086086297        0.5837681982        1.9263188386
 C        -8.0873729704       -0.4231577384       -0.3503715990
 C        -5.4090373218       -3.9755654173        0.6203360331
 C        -3.9553458809       -3.8245297358        0.5786437206
 C        -3.0337105249       -4.9060864691        1.1523309814
 C        -2.4668731143       -5.5309679680       -0.1288985993
 C        -2.9392562333       -6.7590615108       -0.7883498454
 C        -1.9066290175       -4.2742306119        2.0865869876
 C        -3.7438797985       -6.0255966378        1.9328976845
 O        -3.4959296134       -2.8497531892       -0.0286319957
 O        -1.4999542420       -4.8763265793       -0.6374120771
 C        -2.6739140613       -6.8167416066       -2.3479971831
 C        -3.6825153451       -5.9902015038       -3.0627072456
 C        -3.6377234469       -5.8379281195       -4.6998799646
 C        -2.6333596698       -4.7382100965       -5.1005392856
 C        -3.1689727070       -3.2443949651       -5.4924946028
 O        -4.4041440425       -5.2711797647       -2.4521079541
 O        -1.4144678790       -4.9631687622       -5.0330147495
 C        -3.2758433983       -7.1458982000       -5.4063342182
 C        -5.0898317919       -5.5084455457       -5.0168258560
 C        -2.0186850133       -2.2809962136       -5.7468154411
 C        -1.2397987343       -2.1263844301       -4.4790298601
 C         0.2227268885       -1.6279746296       -4.6146396632
 C         0.6479786090       -0.9123700098       -3.3282864939
 C         2.2142398423       -0.6501360588       -3.1556441739
 C         1.0865089107       -2.9106144388       -4.8929932720
 C         0.2793406464       -0.5894676651       -5.7262617303
 O        -1.6342867009       -2.6571391504       -3.4629054012
 O        -0.1233010737       -0.4715232967       -2.5601738647
 C         2.6664882718       -0.7691895510       -1.7533107535
 C         2.4643767565       -2.1621199094       -1.0975595335
 C         3.2996939050       -2.6610204322        0.0782546279
 C         2.3906271187       -3.2709682021        1.2949799877
 C         1.4947385334       -4.4441580367        1.0630973729
 O         1.6865429754       -2.9058759903       -1.6436740345
 O         2.3848283475       -2.6844915626        2.3283748057
 C         4.2857506989       -3.7932770647       -0.4850390486
 C         4.1169162656       -1.5995069616        0.7434477663
 H         8.2193146345       11.0189783715        1.0783918258
 H         9.0807805082        9.8951081245        2.0872819393
 H         8.5424071780        9.4484093387        0.4294395035
 H         4.6166943440        7.9629203838        3.0915397362
 H         3.2647854452        8.6681478655        2.3235789298
 H         3.7996253432       10.2707742130       -0.0697395895
 H         5.2065123447       11.2168925414       -0.1556890009
 H         4.5028695746       10.9694853087        1.5146677516
 H         7.2384932565        8.4228782531       -0.5950612620
 H         5.6648151431        8.5038764260       -1.3143133504
 H         6.7573777707        9.9440191368       -1.2936874614
 H         2.3993385876        6.4654121367        1.5413515407
 H         3.6788618029        5.6054285427        2.2908728638
 H         0.3009930768        3.9681248424        4.4677878302
 H         0.7031757468        4.7286144020        2.9199176462
 H         4.3850844913        5.0519914066        5.6189787762
 H         3.8454818148        6.8078477901        5.9187572695
 H         4.4154391371        6.2412653997        4.3262242296
 H         1.9063901626        5.2355368370        6.8926201022
 H         1.4580457042        6.8934359984        6.3069576881
 H         0.4872747117        5.7189535475        5.6722978685
 H         0.9916408190        1.7950945994        3.6732538655
 H         1.7731600866        2.4303271215        2.2855283629
 H        -2.7335218308        1.8158920583       -0.3834688377
 H        -3.1697335211        0.1247583552       -0.7455272651
 H        -0.0508220681        0.1833633712        3.8651806893
 H         0.8314154837       -0.2002170197        2.5014021889
 H        -0.3815594182       -1.2006220167        3.0924282223
 H        -2.8098782861        2.1997430308        3.0809305027
 H        -2.9235633070        0.5427980883        3.5734027362
 H        -1.6992568639        1.5957767489        4.3109698656
 H        -4.4528247814        0.8294080652        1.7992247544
 H        -4.6615850942        2.2054904164        0.6727286597
 H        -7.2572410792       -3.1179322520       -0.0595705533
 H        -5.8097363728       -2.3280752941       -0.7271035627
 H        -6.4405084111        0.5576035756        2.6380259818
 H        -8.0685339690        0.2448644274        2.2481505874
 H        -7.4733428304        1.5756907180        1.5338743281
 H        -8.5792194694        0.5265573837       -0.6478134359
 H        -7.7646969887       -1.0258509166       -1.2041281760
 H        -8.9387718046       -0.9090742138        0.1528639934
 H        -5.7135407652       -4.8328341611       -0.0115948270
 H        -5.7561140971       -4.1570086600        1.6574934353
 H        -2.5763418804       -7.6511279360       -0.2512961471
 H        -3.9408824700       -6.9132309525       -0.7307614842
 H        -2.4847997884       -3.7308912947        2.9010017422
 H        -1.2940868427       -3.6616014289        1.4245266131
 H        -1.4689042220       -4.9744537124        2.7368074585
 H        -3.0949116778       -6.8851476825        1.8770873190
 H        -3.8065440524       -5.8420940821        2.9870910584
 H        -4.7386975082       -6.2076555263        1.4690599413
 H        -1.6328286761       -6.2941262992       -2.4402393556
 H        -2.3475873127       -7.7965502572       -2.7397271315
 H        -3.8035118416       -3.3267230628       -6.4249644381
 H        -3.9144656704       -2.9266658370       -4.7343362230
 H        -3.0865607595       -6.8147487557       -6.5004167612
 H        -4.0881373215       -7.8741309731       -5.4227122397
 H        -2.3781533395       -7.5144113799       -4.9753597714
 H        -5.7882538823       -6.3741847840       -4.8727902905
 H        -5.3891795790       -4.8062973845       -4.3297482181
 H        -5.2746317193       -5.2479502224       -6.0615378746
 H        -2.5271756137       -1.4292703879       -6.0586711363
 H        -1.4640873189       -2.6045744267       -6.5996594790
 H         2.7822769718       -1.4401598769       -3.6997164598
 H         2.5345147757        0.3749195433       -3.5821885035
 H         0.4783668979       -3.4679983057       -5.7114272895
 H         1.0816066516       -3.5320176346       -3.9531676848
 H         2.0860612872       -2.7136519819       -5.3633786401
 H        -0.2795336250       -0.7795716981       -6.5966229783
 H         0.0973615687        0.4303051460       -5.3192501464
 H         1.2616201095       -0.4528763011       -6.0668411210
 H         3.7057029037       -0.6908167944       -1.7963236788
 H         2.2824040906        0.0886388485       -1.1477349354
 H         1.9815056962       -5.3999770967        0.9103423397
 H         0.9039082127       -4.6485216469        1.9502252955
 H         0.8082646706       -4.2333233324        0.2703997972
 H         3.6337633476       -4.3889463944       -1.1238575296
 H         4.8063406866       -4.3608617841        0.2586765352
 H         4.9170297027       -3.2738938391       -1.1736230330
 H         4.5445169664       -2.1863736418        1.6230796517
 H         4.9454337545       -1.1494381172        0.2304486438
 H         3.5453861293       -0.7018526322        0.9986713900
 Na       -1.2667941090       -2.4981988344       -1.0426207251
