155

 C         8.3849905180        8.8845876438        1.7824984907
 C         7.0857461877        8.1519006948        2.0069937635
 C         5.9289592128        8.2608426453        0.8410300375
 C         4.5706822854        7.4506126152        1.1474824165
 C         3.8883332513        7.6440060368        2.5110851448
 C         5.2579545345        9.6516801273        0.9478795996
 C         6.4512474001        8.0535715321       -0.5535408403
 O         6.8617570008        7.4027141438        2.9275072398
 O         4.1336854538        6.7260970545        0.2632282338
 C         3.7783585694        6.3771025134        3.4109658322
 C         2.3830784820        6.3287170704        4.1179637063
 C         2.0114193994        5.5445354409        5.4309175108
 C         1.2532602132        4.3840857896        4.7095613968
 C        -0.3129496186        4.3337034227        4.3402511799
 O         1.5118077236        7.1619193131        3.7976407095
 O         1.9540105709        3.4520636551        4.2200922758
 C         3.3733007852        5.0895389671        6.1268035473
 C         1.2089487361        6.3859428909        6.4381476365
 C        -0.7316902049        2.8475117231        4.1334113098
 C        -1.8427669599        2.5745993140        3.1645811348
 C        -2.1993583343        0.9414658903        3.2133708014
 C        -2.4250419667        0.5127523820        1.6514475858
 C        -3.5472369001        1.0221782657        0.7762193313
 C        -1.1320214635        0.1431779475        3.7579428492
 C        -3.5612871927        0.7949818618        3.9869955920
 O        -2.3123698634        3.3549980331        2.3391399153
 O        -1.6144202875       -0.2607543546        1.1139728587
 C        -4.6402298690        0.0066379681        0.3963909397
 C        -5.0854590801        0.2661800532       -1.0806041996
 C        -6.4111965123       -0.5405006208       -1.4686649078
 C        -6.1132522654       -2.0327830836       -0.9920708878
 C        -5.1628565338       -2.9082882558       -1.8811913052
 O        -4.4889069830        0.8496870658       -1.9772468373
 O        -6.6972816376       -2.5270950863       -0.0384978039
 C        -7.6095840700       -0.0129385406       -0.7114958004
 C        -6.7356211302       -0.4851081484       -2.9928192441
 C        -4.6620799825       -4.1867151859       -1.1337461244
 C        -3.5703503075       -4.0300703889       -0.0978411340
 C        -2.8106907346       -5.4206530534        0.4023993564
 C        -1.4941432497       -5.4130026427       -0.5145538386
 C        -0.8627596725       -6.8920961037       -0.8029018191
 C        -2.3458991703       -5.3440427910        1.8580530623
 C        -3.6405363825       -6.6144031898        0.1451019944
 O        -3.2537154383       -2.9296681845        0.2519420629
 O        -1.0739323546       -4.3800020372       -0.9600064614
 C        -0.6628720947       -7.1486573361       -2.3554550201
 C        -2.0553006979       -7.1333042668       -3.1504722554
 C        -1.9455048195       -7.0533919195       -4.7763113505
 C        -1.5886295459       -5.4918343145       -5.0456017402
 C        -2.7866479335       -4.5030358421       -5.1114462134
 O        -3.1506935802       -6.9952800218       -2.6795235890
 O        -0.4248983439       -5.0986058489       -5.0980823064
 C        -0.8856539875       -7.9614359155       -5.2724450208
 C        -3.3323570657       -7.3162705830       -5.5109263122
 C        -2.1929125026       -3.0036565053       -5.2588703659
 C        -1.4455485277       -2.5301758830       -4.0195725897
 C        -0.0709550976       -1.7159822867       -4.2547454381
 C        -0.2854426164       -0.4506427478       -3.3541608466
 C         0.9386059011        0.3450614042       -2.9281545376
 C         1.0873938359       -2.6186548143       -3.7920032535
 C         0.0686099263       -1.0898819493       -5.7704237851
 O        -1.7607228411       -2.7653546519       -2.8799846190
 O        -1.4164247367       -0.1154570891       -2.8889954961
 C         1.0893940950        0.8101737153       -1.4925630755
 C         1.4431952711       -0.2922772184       -0.4563682498
 C         2.6711304756       -0.1477926715        0.5205840981
 C         2.8673707313       -1.3972097971        1.3556351745
 C         4.1589078500       -2.2275890718        1.1640299738
 O         0.9023544312       -1.3395964995       -0.4343706255
 O         2.0503049994       -1.7879042940        2.2078846613
 C         3.9305461402        0.2513670143       -0.3370806499
 C         2.2220676483        1.1324745072        1.4614473212
 H         8.0269451176        9.8074011879        1.3385301536
 H         8.9066164299        9.2086739132        2.6853626731
 H         9.0710311396        8.5003479502        1.0492933428
 H         4.2777943166        8.5381005593        3.0050262695
 H         2.8632688928        7.8727904527        2.2483330763
 H         4.3551195630        9.5521078840        0.2873673282
 H         5.8522304750       10.4312232917        0.5724318349
 H         5.0058528305        9.8493227029        2.0088457860
 H         7.1759867661        7.2282575481       -0.7904398594
 H         5.6012501005        7.7924827371       -1.1891633989
 H         6.7143480459        9.0218592349       -0.9786984541
 H         3.8831135884        5.4552828487        2.7895980690
 H         4.6459461046        6.2120400501        3.9934801788
 H        -0.9827073221        4.8748041737        5.1392388610
 H        -0.4698485397        4.9275851895        3.4530405205
 H         4.3036860245        5.5989440487        6.0474249925
 H         3.6441472515        4.0459421932        6.0375742382
 H         3.2178255029        5.1091931022        7.1479716084
 H         0.4429583640        5.7323534628        6.8321878302
 H         1.8174028897        6.7635083286        7.2398071441
 H         0.7034968343        7.1319438350        5.9195905302
 H        -0.9568227654        2.3715094070        5.0628003185
 H         0.2334983759        2.3697592655        3.8362590024
 H        -4.1355018315        1.8782238031        1.1734522918
 H        -3.0931388477        1.3828374141       -0.1440724773
 H        -1.0776919224        0.2371627380        4.8721276579
 H        -0.1902295514        0.4202106950        3.1412183776
 H        -1.2693750096       -0.9200684436        3.5009399588
 H        -4.3344350441        1.4806385420        3.6048262676
 H        -3.9594523419       -0.2224398082        4.0587823683
 H        -3.3896983510        1.1069679248        5.0167989533
 H        -4.2077731569       -1.0251742177        0.2743438966
 H        -5.5035883800        0.0078921650        1.1190990037
 H        -5.8491948745       -3.2769821685       -2.6533933306
 H        -4.4259375194       -2.2019095397       -2.2393417048
 H        -7.5602115836       -0.0198366550        0.4390204745
 H        -8.5844403517       -0.4481899038       -0.9289770941
 H        -7.8064751513        1.1565647091       -0.9785258130
 H        -7.1236077482        0.5360460561       -3.3060728435
 H        -5.8876181626       -0.8376877645       -3.6500528675
 H        -7.6115164164       -1.0942320413       -3.1401738719
 H        -4.1564203295       -4.7228679480       -1.9697265182
 H        -5.4970975497       -4.7664117856       -0.8600731719
 H         0.2367510844       -6.8573485765       -0.5297623874
 H        -1.4269545751       -7.6376056857       -0.2625670252
 H        -3.2251945773       -5.5660932328        2.5732852487
 H        -2.0134225740       -4.3043421654        2.1655184913
 H        -1.4660643570       -5.9000591579        2.1021454306
 H        -3.2314981784       -7.5615956616        0.4998699140
 H        -4.6186915971       -6.5086273550        0.7328184262
 H        -3.8656127567       -6.7008830758       -0.8925891789
 H        -0.1252827617       -6.2939395484       -2.8796365326
 H        -0.1287397628       -8.0654941535       -2.7646535950
 H        -3.4544088785       -4.5735068796       -6.0201011597
 H        -3.4990336316       -4.5125515233       -4.1940699449
 H        -0.5922085026       -7.6873503585       -6.3360126151
 H        -1.3324619753       -8.9466497344       -5.4572112974
 H         0.0443732910       -8.0700997119       -4.8009556717
 H        -3.7313556582       -8.3868967993       -5.2918999430
 H        -4.0883039462       -6.6220848484       -5.1596971178
 H        -3.2313424154       -7.2658428865       -6.5774628668
 H        -3.0123918216       -2.3180409730       -5.4872379830
 H        -1.5060127194       -3.0069217892       -6.0681649586
 H         1.8497226268       -0.2465181436       -3.1252153107
 H         1.1375099686        1.1955426381       -3.5460508482
 H         1.1240609929       -3.6987612431       -4.1880032053
 H         1.0307914680       -2.6048805815       -2.6673309305
 H         2.1025408324       -2.2704252306       -4.0798711100
 H         0.0503177591       -1.8576384167       -6.5249045841
 H        -0.7525031122       -0.3828733538       -5.8839472795
 H         0.9467140321       -0.5248887600       -5.8625290092
 H         1.8063610347        1.6393854635       -1.4872662032
 H         0.1706966586        1.1595284404       -1.2283869810
 H         4.9694017044       -1.5681303849        1.5419644692
 H         4.0253272253       -3.1270963260        1.7698408030
 H         4.3738791313       -2.3456184773        0.1223172584
 H         3.9389589543       -0.1824608342       -1.3888517782
 H         4.8094614322       -0.1610772041       -0.0102215118
 H         4.0431395501        1.2530509400       -0.5591185607
 H         3.1078571184        1.6433125186        1.9121172746
 H         1.6264859713        1.9225561615        0.9384752609
 H         1.6050857015        0.6292320644        2.2181913387
 Na       -1.3389507099       -1.7109842392       -0.7782737679
