155

 C       -13.1250139402       -1.8022986703        2.5688186664
 C       -11.7176628652       -2.3731004369        2.1135016499
 C       -10.4788039916       -2.2609315194        3.1356547351
 C        -9.2007519819       -2.7015091857        2.3349822026
 C        -8.7317799534       -4.1995698616        2.4994508986
 C       -10.2218609910       -0.6776603375        3.3942441737
 C       -10.7291746398       -2.9872228120        4.4717753488
 O       -11.6878293677       -3.0692835530        1.1218290551
 O        -8.6774004766       -1.9784519142        1.5210535672
 C        -7.5082120503       -4.6169705031        1.7046390614
 C        -6.1226704381       -4.1251761438        2.2953692292
 C        -4.8050104435       -4.8442173540        1.6912855914
 C        -4.6537264885       -4.3333048483        0.2695554367
 C        -3.4219692847       -3.4667730393       -0.0810600350
 O        -6.1051558043       -3.3462877623        3.1692253049
 O        -5.5258556279       -4.6529637868       -0.4844809263
 C        -3.6013586203       -4.4600634557        2.5303069120
 C        -5.1370876192       -6.4004484801        1.5677276174
 C        -3.8222389245       -2.6916461492       -1.3050820970
 C        -2.5625661559       -1.8909116119       -1.9266009072
 C        -2.7515301444       -1.2522782243       -3.3835036627
 C        -3.2086599856        0.1957924186       -3.1294200744
 C        -4.5540379359        0.7366947902       -3.6047915539
 C        -1.3739010451       -1.1948863979       -4.0539724153
 C        -3.7893222113       -2.1987481522       -4.1807298216
 O        -1.6030304329       -1.7769987362       -1.1784448430
 O        -2.4388752729        1.0147784797       -2.6491462971
 C        -4.8711971084        2.0152409259       -2.7161313139
 C        -4.7761970577        1.6183827840       -1.2068337063
 C        -4.9390809890        2.7301710227       -0.1878121414
 C        -3.8402535057        2.8029023924        0.9166591316
 C        -3.6776567070        1.5205701260        1.7114966418
 O        -4.5776489008        0.4518484081       -0.8615471176
 O        -3.1243640471        3.7730883999        1.1734253219
 C        -5.1639857431        4.2281176636       -0.7858738464
 C        -6.2986135074        2.3233166305        0.5549747099
 C        -2.3167446357        1.5085184136        2.4036041938
 C        -1.2305031012        1.1609207236        1.5369942838
 C         0.2794018492        0.9389544863        2.0887325376
 C         1.2620352508        1.2173052423        0.8740758256
 C         1.7327521890        2.6583096848        0.6561151026
 C         0.3733016277        1.7555922176        3.4133580740
 C         0.2120665655       -0.6483080075        2.4654714670
 O        -1.4257960212        1.0958137366        0.3182677071
 O         1.6116722627        0.3146199678        0.1482968930
 C         2.7904376088        2.5719286855       -0.5425447254
 C         2.0389986185        2.1979673489       -1.8497472281
 C         2.7998598877        1.5809322635       -3.0719061267
 C         2.8531590564       -0.0470186508       -2.7950246192
 C         4.1506030207       -0.8213391576       -2.6022397067
 O         0.8626785273        2.2398943534       -1.9064541633
 O         1.8048860616       -0.6052787127       -2.7056413354
 C         1.8593267869        1.7854363478       -4.3541833495
 C         4.1812814259        2.1299683630       -3.1649162586
 C         4.3694194132       -1.1355924459       -0.9989211719
 C         5.2366542592       -0.1994209090       -0.0336433922
 C         6.7365645685       -0.3785867748        0.3863018181
 C         7.6283829608        0.7568474338       -0.3671536752
 C         8.9189576468        1.1532642443        0.3791816296
 C         6.7052019368       -0.3520907913        1.8972931616
 C         7.4000141717       -1.7070128403       -0.1493317850
 O         4.6813492466        0.7152946987        0.5435190845
 O         7.2624227749        1.2185736369       -1.4747838952
 C         9.8750611407        1.9886885971       -0.5972224187
 C        10.8316414501        2.9036801579        0.1304292241
 C        11.8256464407        3.7582323973       -0.6187456746
 C        12.9948416838        2.7581234188       -1.0370441971
 C        13.8763970545        1.9271871453       -0.0545072253
 O        10.7043591186        3.0357413643        1.3223864326
 O        13.0494693347        2.6048677808       -2.2382434813
 C        11.2479668068        4.2785013094       -1.9402777613
 C        12.4129954772        4.9141919839        0.1200688442
 H       -13.5029656786       -2.6362639050        3.1781552565
 H       -13.0434651319       -0.9955270393        3.2721692337
 H       -13.8390223857       -1.6937174829        1.7511248757
 H        -8.3950042022       -4.1259173283        3.5332867645
 H        -9.4590084359       -5.0132780850        2.3687894762
 H        -9.4472951039       -0.4408690063        4.1115054041
 H       -11.1460458896       -0.1595424386        3.7281493072
 H        -9.9509399278       -0.1760134595        2.4797735495
 H       -11.6450248548       -2.5541259646        4.8949912628
 H       -11.0171455444       -4.1183578551        4.4642676973
 H       -10.0527240775       -2.8233280439        5.3456016850
 H        -7.5474234913       -5.7420195794        1.6711373163
 H        -7.5419943172       -4.3219450597        0.6225991181
 H        -3.2575183688       -2.7351014321        0.6635413817
 H        -2.5075006491       -4.0154727838       -0.2780114393
 H        -2.7007520962       -4.5909024095        2.0368073790
 H        -3.4458374277       -4.8478842098        3.5111713113
 H        -3.4854273454       -3.3578149682        2.7616365067
 H        -4.2634750032       -6.7335939022        1.0242527033
 H        -5.1427976546       -6.8555819999        2.5669850304
 H        -6.0197103121       -6.5756780024        0.9068375655
 H        -4.6362393394       -2.0298971603       -1.2131989921
 H        -4.1302603492       -3.3647078125       -2.0071128079
 H        -4.2118426312        1.1421148692       -4.5599307858
 H        -5.2835870576       -0.0461538674       -3.9075828607
 H        -1.1888597914       -0.1209045744       -4.2025375394
 H        -1.3739028871       -1.6869162691       -4.9447316198
 H        -0.4453977383       -1.4959568104       -3.4588182164
 H        -3.4746921692       -3.2354518367       -4.2987541591
 H        -4.7096493751       -2.1817145723       -3.5046547568
 H        -4.0391236881       -1.7296265263       -5.1392159481
 H        -4.0677762375        2.6426818770       -2.8967879356
 H        -5.8252704903        2.3947053561       -2.9483296618
 H        -4.5706999909        1.4644290955        2.3586386765
 H        -3.8242271969        0.6674732789        0.9980723375
 H        -4.3179308119        4.6713316911       -1.3070694144
 H        -5.4580641790        4.7744978691        0.1340536339
 H        -6.0728494104        4.2125628519       -1.4095695601
 H        -7.0072787869        2.1538449863       -0.1792818462
 H        -6.1081006702        1.3576075464        1.0420874295
 H        -6.6020607271        3.0520008573        1.2966542412
 H        -2.2658793442        0.8880779483        3.2771198770
 H        -2.1120425918        2.4945299721        2.8736820705
 H         0.9285566321        3.3184253386        0.5022497823
 H         2.2335502713        3.0017606717        1.5839462243
 H         0.4497610639        2.8433181691        3.1857688586
 H         1.2569180033        1.3003539804        3.8499470757
 H        -0.4712916007        1.6183021587        4.0751791758
 H         1.2529895066       -1.0686411728        2.1931011493
 H        -0.2727190932       -0.9168289020        3.4203801927
 H        -0.3891078055       -1.1389532258        1.6589809291
 H         3.3279872052        3.4775436187       -0.7227518608
 H         3.4633819624        1.7920765476       -0.1727174763
 H         4.0345828926       -1.7615998546       -3.1067581409
 H         4.9977269290       -0.1922931589       -3.0093470546
 H         1.8763466362        2.8500758128       -4.6988633610
 H         0.7687694705        1.6035725764       -4.0226441561
 H         2.1438096222        1.2293165457       -5.2238212296
 H         4.9108572486        1.9525956700       -3.9101771207
 H         4.0958963319        3.2131180964       -3.2007413333
 H         4.5971543630        1.8414725491       -2.2776944965
 H         4.6954902496       -2.2063012242       -0.9946018125
 H         3.3785655433       -1.0884785646       -0.6453046382
 H         8.5452468492        1.7290560086        1.2043152426
 H         9.2935163945        0.2312247640        0.7474119516
 H         5.9647184808        0.3344326906        2.1696130027
 H         7.6268453634       -0.0879740293        2.4101378815
 H         6.5213206343       -1.3241651382        2.3334800937
 H         7.5805560995       -1.5299340305       -1.1961487300
 H         8.3827685384       -1.8223940206        0.3264040977
 H         6.7609074011       -2.5249431628       -0.0103420136
 H        10.3539556562        1.4403442064       -1.3729307750
 H         9.1280120634        2.4941457693       -1.2426041887
 H        13.5513216727        1.8144725495        0.9717229419
 H        13.9724640505        0.9603087166       -0.5467869139
 H        14.8808433579        2.3058971614       -0.1549210434
 H        10.1749503228        4.4393268041       -1.8687663118
 H        11.4019045923        3.4700506929       -2.7146068933
 H        11.6679650956        5.2655061117       -2.2874594592
 H        13.1266204224        5.5012059050       -0.4202749682
 H        11.5203184006        5.5711608416        0.4304184614
 H        12.8895981756        4.5855665169        1.0529972889
 Na       -0.3004522728        0.3120736030       -2.0425047607
