155

 C         8.1496160306        8.0905150595        1.7177518121
 C         6.8151306311        7.7177885189        2.1046469280
 C         5.7245028191        7.7868048104        1.0377574087
 C         4.6339154816        6.6567445505        1.6045816263
 C         3.5397992643        7.1713270369        2.3922059866
 C         5.1692917680        9.2277181884        1.0779959684
 C         6.1747152258        7.3544812628       -0.3501609146
 O         6.6140867145        7.5183598661        3.2896937448
 O         4.8490788177        5.4707136882        1.4037837734
 C         2.4385214808        5.9965679118        2.4944299078
 C         1.6148583783        6.4237885695        3.7192731615
 C         1.4867359892        5.4267682030        4.9943179404
 C         0.8799270997        4.0413385456        4.4138912032
 C        -0.6257877070        3.7690341980        4.3293035754
 O         1.1031256683        7.5437926537        3.7777598239
 O         1.7179121927        3.2451708866        3.9635894149
 C         2.8556869269        5.1171979308        5.5379044984
 C         0.5092275781        5.9907730465        6.0470746631
 C        -0.9712072690        2.2558672354        4.3185722998
 C        -1.6541755630        1.7442231248        3.0892717897
 C        -2.5319139566        0.3755992656        3.0211274069
 C        -2.2872338895       -0.1692700139        1.5305837625
 C        -3.1033755159        0.3871572274        0.2833369963
 C        -2.1572383483       -0.7734085020        4.0470646413
 C        -4.0214714820        0.8587548341        3.1977473063
 O        -1.6168896325        2.4213388345        2.0487218902
 O        -1.5181097041       -1.1120354570        1.4668147633
 C        -4.6309721675        0.2907252545        0.0785732551
 C        -5.1127270579        0.1554652179       -1.3686148736
 C        -6.4986385946       -0.7218701940       -1.7969821683
 C        -6.1327505399       -1.9853001453       -1.0545165520
 C        -5.4520310701       -3.1311541756       -1.8897917268
 O        -4.5078190803        0.5857323822       -2.3243745796
 O        -6.2614724556       -2.0917321887        0.1896746090
 C        -7.7203052274       -0.1279141903       -1.1278354751
 C        -6.6022930997       -0.8184755315       -3.2993157345
 C        -4.9327816501       -4.3122802131       -1.0480950669
 C        -3.6444638291       -3.9188522516       -0.2904868515
 C        -2.9682352684       -5.1403299409        0.5475469598
 C        -1.4858400590       -5.4842049562       -0.2193789935
 C        -1.3358090994       -6.9282689929       -0.7612179465
 C        -2.7083336078       -4.4413856804        1.9353466300
 C        -3.9947188576       -6.2680062016        0.7617430166
 O        -3.0979805138       -2.8720765232       -0.4556248724
 O        -0.7161280761       -4.6084826342       -0.3867249995
 C        -0.5400827276       -6.9536596712       -2.0583362835
 C        -1.4302995593       -6.5554559773       -3.2321247302
 C        -0.9673546072       -6.7479413705       -4.6872757210
 C        -0.8373238394       -5.2827621401       -5.1205528826
 C        -2.0641312406       -4.4931541991       -5.3301421611
 O        -2.4952691213       -5.9673290242       -3.0712902287
 O         0.2186098352       -4.7158828546       -5.3248165516
 C         0.2974231699       -7.5392404242       -4.8659344930
 C        -2.1031834211       -7.4423982130       -5.5004145843
 C        -1.8474414417       -2.9186915958       -5.3849672694
 C        -1.2844433585       -2.4020584906       -4.1133625121
 C        -0.1179097440       -1.3488570788       -3.9493432809
 C        -0.4612171846       -0.2355943830       -2.8744278729
 C         0.4520776427        0.9309763780       -2.6493535120
 C         1.1851603420       -2.0548409019       -3.3785153176
 C         0.3057437817       -0.6794541267       -5.2535104202
 O        -1.7387414848       -2.9026990524       -3.0946806442
 O        -1.5550434458       -0.2576614236       -2.3207540336
 C         0.4507212371        1.3013067567       -1.0744804182
 C         1.3982425313        0.2656467904       -0.3613836209
 C         2.5194007969        0.8304776078        0.6555853600
 C         3.1813229372       -0.3689820066        1.4138962096
 C         4.1168722959       -1.2769997716        0.5589934135
 O         1.3695392402       -0.9143044682       -0.5875078144
 O         3.0011930854       -0.5366290535        2.6168830053
 C         3.5327082412        1.7339954558       -0.0603373433
 C         1.7286863874        1.7097312753        1.6648251749
 H         8.2016223542        9.0502611859        1.1884099247
 H         8.9490185853        8.0762841140        2.4830093304
 H         8.3993371751        7.3284880405        0.9612301794
 H         3.9063994037        7.5568266612        3.3468349782
 H         3.0023133621        7.9456258162        1.9221472281
 H         4.6364100906        9.3703694187        0.1585033162
 H         5.9914408267        9.9447668973        0.9281971534
 H         4.5239334184        9.4295933161        1.9900454312
 H         6.8534505743        6.5166454190       -0.4290123364
 H         5.3443232820        7.2170326744       -0.9770191096
 H         6.8311244455        8.1194761549       -0.7580542332
 H         1.8664157210        6.1747283386        1.6379181848
 H         2.8644535174        5.0122558488        2.6872804035
 H        -1.2338831753        4.3211412668        5.0307746098
 H        -0.8755300331        4.1785471013        3.2821910121
 H         3.5917227134        5.9146579716        5.6032161831
 H         3.4116516458        4.4225664903        4.9101438441
 H         2.7577611456        4.6480445440        6.5280658750
 H         0.4276738619        5.4568687508        6.9814447516
 H         0.9446139611        6.9431347870        6.4173018227
 H        -0.4097482338        6.1430033832        5.6052375112
 H        -1.5646956304        1.9742800472        5.2270662119
 H        -0.0126886828        1.7850054870        4.5288072284
 H        -2.9324734376        1.4440245259        0.2936621238
 H        -2.6555911671        0.0090672366       -0.6279637081
 H        -2.2957694433       -0.2969306246        5.0379773498
 H        -1.0835120904       -1.1260248065        4.1761675950
 H        -2.8154191626       -1.6431137716        3.8876740301
 H        -4.4661564284        1.5521227738        2.5535929588
 H        -4.7884918018        0.0123930072        3.2330775547
 H        -4.0611717161        1.2478522325        4.1860758143
 H        -5.1572402174       -0.5782620926        0.5982077410
 H        -4.9389965050        1.1890029735        0.6152151751
 H        -6.1093240824       -3.4664330959       -2.6912174111
 H        -4.6203591292       -2.6507234474       -2.4617317611
 H        -7.8109850986       -0.3766536530        0.0498688254
 H        -8.5787393598       -0.6290766255       -1.5580696639
 H        -7.8488797502        0.9809043921       -1.1801464908
 H        -6.5151006087        0.1804777422       -3.7897185306
 H        -5.7160768908       -1.3176278739       -3.7489356647
 H        -7.5004249703       -1.2631982228       -3.5934471710
 H        -4.7257470462       -5.1600630187       -1.7573964769
 H        -5.6546670331       -4.6057169022       -0.3437975313
 H        -0.7457407537       -7.5447504770        0.0310993888
 H        -2.3667549142       -7.3460157054       -0.8677486365
 H        -3.6924664314       -4.0750577982        2.3828317095
 H        -2.0367506183       -3.5531150568        1.8288867110
 H        -2.2517673380       -5.1597132921        2.6514045986
 H        -3.5523685731       -6.9638446800        1.5128517807
 H        -4.8481410177       -5.8085271310        1.2575288893
 H        -4.3990933950       -6.6831968307       -0.1110739490
 H         0.3595782171       -6.2267371700       -2.1528122918
 H        -0.1619878267       -7.9820289406       -2.2071426415
 H        -2.5764331862       -4.8072745679       -6.2784226144
 H        -2.8077125510       -4.6689507793       -4.4991132960
 H         0.8993021427       -7.2803611342       -5.7303333431
 H        -0.0688528964       -8.5738337514       -5.0027893586
 H         0.9600599573       -7.5505014204       -3.9694894677
 H        -2.0792537002       -8.5489519421       -5.3980968654
 H        -3.0985262969       -7.0364264485       -5.2110062621
 H        -1.9448779927       -7.1667014101       -6.5168301451
 H        -2.8120252734       -2.4726841857       -5.5699934701
 H        -1.2078735885       -2.6568464146       -6.2443612018
 H         1.4600104799        0.8636996415       -3.0459306969
 H        -0.1135786715        1.7320136646       -3.1587647816
 H         1.8681121653       -2.5827075482       -4.1123257906
 H         1.0899248608       -2.8604997033       -2.6029902137
 H         1.7015189470       -1.2602840839       -2.8165504033
 H         0.7993124807       -1.3374463996       -5.9569413082
 H        -0.6011003125       -0.4525142257       -5.7088572033
 H         0.9035308214        0.2349443136       -5.0970114853
 H         0.9376592350        2.2285463042       -0.9428097545
 H        -0.5203017838        1.3079088807       -0.6992201970
 H         5.0000958570       -1.4091151518        1.1201288485
 H         3.5077760779       -2.1568376717        0.5368522734
 H         4.1916114774       -1.0067684678       -0.4903263706
 H         4.2879524313        1.1826921162       -0.6529564642
 H         4.1325383389        2.1908023589        0.6616786440
 H         3.2544338860        2.6010437549       -0.5784089913
 H         2.3785984497        2.1147093094        2.4099090725
 H         1.1403589605        2.5506103879        1.1972492844
 H         1.0421870198        1.0611499507        2.2184438132
 Na       -1.0065954770       -2.3417821551       -0.8595005450
