155

 C         8.2645650752        7.9147531709        1.7093135217
 C         6.8104188892        7.7048713019        2.1625880068
 C         5.7788418843        7.5869128900        1.0615587517
 C         4.6717292347        6.5142164648        1.6164269337
 C         3.4953076071        6.9663421957        2.4812939255
 C         5.0945519496        8.9748739797        1.0671281797
 C         6.1624369603        7.1086872228       -0.3231254640
 O         6.5403886023        7.6127179841        3.3680610801
 O         4.7643764026        5.3804724201        1.2990938594
 C         2.3491884906        5.9182856445        2.7483550785
 C         1.2916730381        6.3526683615        3.7601081596
 C         1.2444595623        5.3963220032        5.0129658202
 C         0.9316260050        3.9145833181        4.4603434238
 C        -0.6223456932        3.6755226588        4.2230757820
 O         0.5763626298        7.3029201478        3.6213120675
 O         1.7672621381        3.1137203460        4.1946330692
 C         2.6956992090        5.3581783085        5.6088789907
 C         0.2029136666        5.9394636984        6.0297263723
 C        -1.0398877463        2.1560109949        4.3362188918
 C        -1.6471852170        1.7194583039        2.9784575808
 C        -2.6445649681        0.4706372500        3.0291529332
 C        -2.5343875227       -0.1635044154        1.5334516078
 C        -3.2234128272        0.4802183868        0.2815033217
 C        -2.1223342486       -0.4361980350        4.1586508148
 C        -4.0137747777        1.0491844851        3.4324332304
 O        -1.4594105405        2.3215930024        1.9680982069
 O        -1.8160201666       -1.1534509291        1.4577585447
 C        -4.8271085685        0.3295909595        0.1607875979
 C        -5.0848418980        0.1128644359       -1.3782609688
 C        -6.3320373513       -0.7371732987       -1.6909896872
 C        -6.0583959491       -2.2171096474       -1.0799797938
 C        -5.5645670897       -3.2724445513       -2.0280878081
 O        -4.3152055192        0.4269768572       -2.2463326779
 O        -6.1558006524       -2.4036009814        0.1082136468
 C        -7.6471017727       -0.1142589011       -1.0389327345
 C        -6.6221165662       -0.7751938871       -3.2494444674
 C        -4.9690466833       -4.3621610494       -1.2026146953
 C        -3.6689993481       -3.8998749811       -0.4993666310
 C        -2.9036657231       -5.0162500853        0.4309940843
 C        -1.6583103567       -5.4801412272       -0.2241706704
 C        -1.5387469655       -7.0517988778       -0.6589632634
 C        -2.4941393666       -4.2640153472        1.6636387897
 C        -3.8065611611       -6.2342917678        0.8507017806
 O        -3.1310281163       -2.7956607124       -0.6980373663
 O        -0.7035079708       -4.6730434053       -0.4880203543
 C        -0.6508089423       -7.1280938559       -1.8718111725
 C        -1.4520713260       -6.5350022410       -3.0956776496
 C        -0.9272502689       -6.6126958384       -4.4874556542
 C        -0.7889076313       -5.1319065837       -5.1290064215
 C        -2.0013044022       -4.2476197380       -5.4129653916
 O        -2.5688962840       -6.1086268447       -2.9335735254
 O         0.2985858881       -4.6429720666       -5.2322404998
 C         0.5064709998       -7.1616657392       -4.6530559843
 C        -1.8888769079       -7.4921384799       -5.2948796691
 C        -1.4843667160       -2.7522455278       -5.4027591547
 C        -1.0269186870       -2.3233034857       -4.0543513098
 C         0.0983694539       -1.3395141544       -4.0194833279
 C        -0.4713138981       -0.2420985843       -2.9912202940
 C         0.4032470808        0.9584264801       -2.6111177519
 C         1.3439673301       -1.9779227400       -3.5040323962
 C         0.3406571094       -0.5341790334       -5.3614696030
 O        -1.3649188445       -2.9568364870       -3.0682114642
 O        -1.5930257477       -0.2467750672       -2.5650288102
 C         0.4442183208        1.2625760809       -1.1351978034
 C         1.3645385923        0.3436371140       -0.3618045063
 C         2.4506839390        0.9356445222        0.5649103375
 C         3.2296538583       -0.2585072950        1.2973221479
 C         3.9080966550       -1.3401467933        0.3815354515
 O         1.2568088644       -0.8974005292       -0.4953001068
 O         3.2223583697       -0.3506077759        2.4997588908
 C         3.4982144920        1.8378286121       -0.0664064364
 C         1.6474369090        1.7450426950        1.5791920492
 H         8.3979979822        8.7706158929        1.1205593368
 H         8.7981275153        8.1112919053        2.6493524557
 H         8.7727084917        7.1343185945        1.2111263539
 H         3.7677557604        7.2802918162        3.4934251846
 H         2.9308528634        7.7935803172        1.9521913583
 H         4.1605406823        9.0453885599        0.5387146483
 H         5.6783735343        9.5477094162        0.3630010184
 H         5.0812909105        9.3831546376        2.0071857539
 H         6.2621266950        6.0417818517       -0.4127459651
 H         5.3368930450        7.4722415851       -0.9917429371
 H         7.1861079721        7.3174879722       -0.6125810551
 H         1.7469994381        5.8469836139        1.8016315688
 H         2.8613349099        4.9771073184        2.9999073693
 H        -1.2412287992        4.1438374678        4.9919064623
 H        -0.9186430355        4.0328136729        3.2803204666
 H         2.7965111038        6.2310239464        6.2243057663
 H         3.5414929515        5.4845666627        4.9759956535
 H         2.8233750842        4.4665552981        6.2061351688
 H        -0.2612033067        5.1204456523        6.5390306584
 H         0.7307336122        6.4251725534        6.8255988773
 H        -0.6694950584        6.4595911511        5.6092609892
 H        -1.6335404517        2.0440473052        5.1989898714
 H        -0.1566851334        1.5302874537        4.5225795983
 H        -2.9041823040        1.5609337426        0.2084638963
 H        -2.9018824770       -0.0566512558       -0.6354401702
 H        -2.1126773106        0.0028807130        5.1326345249
 H        -1.0940163296       -0.6896882065        4.0252483807
 H        -2.6435636538       -1.4195807514        4.1057654523
 H        -4.4772059277        1.6384715361        2.6137107663
 H        -4.7105796948        0.2548645572        3.5198969087
 H        -4.1000298562        1.5841415894        4.4020912394
 H        -5.2939530787       -0.4305276968        0.7192013976
 H        -5.3169834579        1.2599767411        0.4996710927
 H        -6.4464419678       -3.5467113557       -2.6680994198
 H        -4.8938734418       -2.8634183780       -2.7970890979
 H        -7.5070064140        0.3371812142       -0.1096253136
 H        -8.4306688431       -0.7951412421       -0.8517056901
 H        -7.8041278761        0.7749399978       -1.6302507753
 H        -7.1945978496        0.0889867642       -3.5446327051
 H        -5.7562012721       -0.7224707074       -3.8759164325
 H        -7.3325511913       -1.6352137884       -3.5225581447
 H        -4.7098387657       -5.2115313724       -1.8075542069
 H        -5.7233160887       -4.6924449917       -0.3698585010
 H        -1.2609833853       -7.6699146286        0.1011261392
 H        -2.5893555971       -7.2652948688       -0.9064997247
 H        -3.3519352538       -3.7172998526        2.0378748051
 H        -1.7187644001       -3.5156436338        1.4814796311
 H        -1.9420304736       -4.9800825039        2.3838402176
 H        -3.2167186260       -6.8973872743        1.4532623606
 H        -4.6125064717       -5.8836564488        1.4957317020
 H        -4.3213973516       -6.7420410327       -0.0256420775
 H         0.1226304483       -6.4625510354       -1.7468660878
 H        -0.2170901935       -8.1173881394       -2.0218659716
 H        -2.3337971422       -4.4136488695       -6.4190364544
 H        -2.7856118261       -4.4826149587       -4.7439029080
 H         0.6734120662       -7.5049249355       -5.6610432472
 H         0.6865071192       -7.9756454851       -3.9776567410
 H         1.2064806158       -6.3528439278       -4.4612027526
 H        -1.8787267503       -8.3396468723       -4.6535203243
 H        -2.8868339164       -7.0684456838       -5.2935073027
 H        -1.5709383539       -7.8569581918       -6.3196886416
 H        -2.3092065687       -2.0333514735       -5.7540404867
 H        -0.7607288332       -2.6263235430       -6.2217092761
 H         1.4043051285        0.7199425977       -3.0195452976
 H         0.0206644301        1.8695645807       -3.0810688161
 H         1.4878924780       -2.8755701973       -4.0621443203
 H         1.2058725532       -2.3975152658       -2.5151142137
 H         2.2576540248       -1.3957389513       -3.3950899960
 H         0.6613353117       -1.1870140442       -6.1589908916
 H        -0.5546120823       -0.0216337933       -5.7672516526
 H         1.1240254318        0.1481374042       -5.1215634013
 H         0.7992549183        2.3195051579       -0.9642483263
 H        -0.6923072794        1.2072517945       -0.8297762920
 H         4.9073715921       -1.5365032122        0.8417642955
 H         3.3048911804       -2.2681148624        0.2408758369
 H         3.8900927276       -0.8019448162       -0.5587648927
 H         4.3647573055        1.3550195000       -0.4697566382
 H         4.0235921534        2.6580746809        0.5776405941
 H         3.0813257937        2.4872021843       -0.9028433548
 H         2.2363268225        1.7844037213        2.5095616049
 H         1.6081760677        2.7752647427        1.2396738042
 H         0.6329692662        1.3817684559        1.8406288993
 Na       -0.7171866874       -2.1199098979       -0.7796676954
