155

 C         5.3935686961        4.8901970585        4.0937932784
 C         5.2968407144        6.2226466763        3.3724043940
 C         4.8175390310        6.0993910371        1.7698216898
 C         3.4640681225        5.1766499989        1.8836420301
 C         2.1242603047        5.8712108610        2.0091739280
 C         4.5740727074        7.5719210085        1.1994216764
 C         5.7666500264        5.3509612029        0.8044175423
 O         5.5472927219        7.3147196356        3.8355793752
 O         3.5864637957        3.9791652991        1.7422325741
 C         1.9247981513        6.8899566719        3.2001789749
 C         0.6077346354        6.6922066909        3.9503762121
 C         0.4949127435        5.9293916210        5.2862040098
 C        -0.7353488435        4.9231573350        5.1548448748
 C        -0.5799926207        3.6569743779        4.3093113802
 O        -0.4060556208        7.0513311207        3.4136974503
 O        -1.7783492151        5.1027209894        5.7951585218
 C         1.7571188418        5.1796815409        5.6935470407
 C         0.2089760337        6.9337612703        6.3898384853
 C        -2.0330091261        3.1279436121        3.9807523603
 C        -1.9706457948        2.4890974597        2.5710451101
 C        -3.1353733822        1.4506033632        2.3427968718
 C        -2.9736351524        0.9176895738        0.9003460197
 C        -4.1380493438        0.9663119362       -0.1630068619
 C        -2.8846309066        0.2454367442        3.2899669402
 C        -4.4718327093        2.1620619765        2.4991315134
 O        -1.1067556739        2.7227703402        1.7509522723
 O        -1.9438758697        0.3790425038        0.5422805568
 C        -4.9926138195       -0.2586720228       -0.0622816321
 C        -5.9874360642       -0.3411874399       -1.2967946394
 C        -6.9272192565       -1.5990072139       -1.3437450453
 C        -6.1541890937       -2.9804941379       -1.2934604184
 C        -5.3289756357       -3.4135239333       -2.4918182337
 O        -6.1310657962        0.6226499192       -2.1028062986
 O        -6.1877757232       -3.6019046374       -0.2372219267
 C        -7.9991643993       -1.5609034319       -0.1675552803
 C        -7.7350264590       -1.5429147065       -2.7157552229
 C        -4.2035269618       -4.4505395216       -2.1160483310
 C        -3.1736055250       -3.9028974229       -1.1138439773
 C        -2.4526658350       -4.8254582185       -0.0032176527
 C        -0.9126596210       -4.8372473806       -0.4551000686
 C        -0.1163199349       -6.1494686484       -0.2320344362
 C        -2.5231350492       -4.2246201883        1.4470990319
 C        -3.0218558074       -6.2274761528        0.2083916762
 O        -3.1222779670       -2.6910128768       -1.0794496745
 O        -0.3176503957       -3.7823587010       -0.6914506076
 C         0.9055533451       -6.4345996137       -1.3604746863
 C         0.0766077865       -6.1576983976       -2.6713138082
 C         0.6195411541       -6.3197257984       -4.0649240572
 C         1.3175149600       -4.9032116646       -4.2843469539
 C         0.8415795460       -3.9298735266       -5.3365893898
 O        -1.0706492922       -5.7277332090       -2.5293761656
 O         2.3259604567       -4.6077996932       -3.6365538965
 C         1.6644652548       -7.3636035257       -4.3094436533
 C        -0.5385470099       -6.4952681884       -5.0691482950
 C         1.4012973483       -2.5587059168       -5.0947532962
 C         0.5052089783       -1.9083872627       -4.1145313511
 C         0.1386627200       -0.4100857176       -4.2982537738
 C        -0.2400522628        0.4588418587       -3.0593666246
 C         0.6711453856        1.4623269894       -2.3877876671
 C         1.3013644521        0.3925845043       -5.0337681576
 C        -1.2904893875       -0.3753033161       -5.1177914915
 O        -0.1013891686       -2.5064185431       -3.3190865808
 O        -1.2928217938        0.2346195690       -2.5150246082
 C         0.7956168869        1.1526560756       -0.8583928443
 C         1.5865571827       -0.0711430036       -0.5395938971
 C         3.0345728773        0.1095526952        0.1671910009
 C         3.8005991454       -1.2809077830        0.0834091779
 C         4.3804446297       -1.6875345480       -1.3498000641
 O         1.2781528985       -1.2394161011       -0.6851607567
 O         3.9153581886       -2.0671737027        0.9849308988
 C         3.7838087972        1.2913360213       -0.4681253140
 C         2.8433977565        0.3743096821        1.7474901756
 H         5.5181703827        5.0789257659        5.1481701550
 H         4.5113053760        4.1919601621        4.0446588058
 H         6.1902609987        4.3783651592        3.6575809436
 H         2.1284945527        6.4840176740        1.1062447107
 H         1.4280286193        5.0489567146        2.0207362478
 H         3.5579424046        7.4223860776        0.6705659708
 H         5.3065390906        8.0137760643        0.5460425620
 H         4.5083664724        8.3120188429        1.9796545578
 H         5.9316844354        4.3582872339        1.2645421810
 H         5.4555246454        5.2866512431       -0.2237512735
 H         6.6297609484        6.0155714065        0.8751604116
 H         2.7689837541        6.9323956046        3.8989230727
 H         2.0278360637        7.9333864561        2.7311679592
 H        -0.1225651401        3.8151353144        3.3840927191
 H        -0.1113491408        2.8054330343        4.7873778150
 H         2.6608203830        5.8485761559        5.6358497601
 H         1.7213554272        4.3810211534        4.8967897880
 H         1.8151320263        4.8276396833        6.7310810654
 H        -0.1456644658        6.3652032169        7.2805972403
 H         0.9559563725        7.6227764094        6.6229191924
 H        -0.6542807101        7.5863239960        6.0655543576
 H        -2.6838963865        3.9759379355        3.9261861841
 H        -2.3693337477        2.4661503030        4.7478520746
 H        -4.6501818128        1.9258682744       -0.0745435497
 H        -3.6404796692        0.9181490509       -1.1817537918
 H        -3.1943481229        0.4331709649        4.3165853897
 H        -1.8745303970       -0.1671420633        3.0842420093
 H        -3.5683602596       -0.5248635900        2.7400142731
 H        -4.3680850492        3.0914446281        1.8881899077
 H        -5.1646302784        1.4922003578        2.0763747875
 H        -4.7255822723        2.4610805590        3.4825057355
 H        -4.3567269603       -1.0800524930       -0.2881000024
 H        -5.5728173245       -0.4918136842        0.8114227655
 H        -5.9913630632       -3.9095821727       -3.2029598404
 H        -4.9413964903       -2.5140060127       -3.1106318980
 H        -7.3799325113       -1.5790731423        0.7249573391
 H        -8.7455245799       -2.5586214992       -0.2224359083
 H        -8.7724378085       -0.7483307405       -0.0549483391
 H        -8.0514873287       -0.5040064778       -2.8089818375
 H        -7.1637216800       -1.6822612970       -3.6265054253
 H        -8.5529125152       -2.2589418832       -2.7470119607
 H        -3.6523981636       -4.7903373525       -3.0480995873
 H        -4.6033399467       -5.3178102682       -1.7116216824
 H         0.3601327953       -5.9867971908        0.8171682540
 H        -0.7255681723       -7.0752927327        0.0622036590
 H        -3.5476631792       -4.2775824065        1.7770108757
 H        -2.3500825331       -3.1416784035        1.5005978745
 H        -1.6174127761       -4.6866652862        1.9657526228
 H        -2.4292929528       -6.7322806033        0.9501261598
 H        -4.0244901863       -6.2462392197        0.6415581143
 H        -3.0918869753       -6.7681570125       -0.7016936817
 H         1.8337588508       -5.8569874778       -1.3167727400
 H         1.2538565004       -7.3828716832       -1.1650253776
 H         1.1684869060       -4.2637373671       -6.3120167150
 H        -0.2334593896       -3.8758258675       -5.4549235208
 H         1.3825284422       -7.8230257450       -5.3334730380
 H         1.6239857046       -8.2341366939       -3.6719732974
 H         2.6745568160       -7.0450521881       -4.3907156935
 H        -0.9993907608       -7.4993897278       -5.2162797061
 H        -1.3056569874       -5.8636874813       -4.6976014757
 H        -0.2527617648       -6.1704077755       -6.0412402160
 H         1.2335034739       -1.9939951271       -6.0300508782
 H         2.4430668984       -2.5812410354       -4.7158849299
 H         1.7071152065        1.3006012353       -2.7462237634
 H         0.3638584219        2.4978557185       -2.6746740769
 H         1.3751469911        0.1263343493       -6.1149789758
 H         2.2553649766        0.1102071280       -4.5706399183
 H         1.0561967552        1.4707552489       -4.8775068090
 H        -1.2113830282       -0.9356600289       -6.0749333284
 H        -2.0363140866       -0.8028433393       -4.3821561471
 H        -1.7349356733        0.5853624293       -5.4144819559
 H         1.3077389484        2.0050207597       -0.2541302187
 H        -0.2156140201        1.1241423504       -0.4126687373
 H         3.7241163649       -1.7358150329       -2.2072735281
 H         4.9733710961       -0.8579490111       -1.6968225887
 H         4.9946777605       -2.5382451367       -1.1650568876
 H         3.5594102817        1.3061348578       -1.5203927135
 H         4.7969130640        1.0546959024       -0.1675874884
 H         3.5782068024        2.2315573573       -0.0504280655
 H         2.2905409357        1.2932199430        1.9605696016
 H         2.4741604792       -0.4492836700        2.2724622768
 H         3.8219643217        0.5712094222        2.0535404286
 Na       -0.9796454893       -1.5801926751       -0.8798589658
