155

 C       -13.2236836228       -2.0976664625        2.7625629242
 C       -11.8165416869       -2.5463828817        2.3549771882
 C       -10.5147576702       -2.4362749091        3.2875443554
 C        -9.2985594259       -2.9103528878        2.3443227551
 C        -8.9980729377       -4.4529172141        2.3231026961
 C       -10.2687997641       -0.9407130445        3.6162164326
 C       -10.6786334145       -3.1847155659        4.6737665022
 O       -11.5833228014       -3.0255186077        1.2381385385
 O        -8.5938813041       -2.0988621830        1.7425506556
 C        -7.7760461791       -4.8596889657        1.4920179520
 C        -6.5271234082       -4.2161781680        2.1165161768
 C        -5.0426963099       -4.6409378974        1.6579927062
 C        -4.8549637073       -4.0093697711        0.2624214048
 C        -3.6242189323       -3.1985411771       -0.1182473949
 O        -6.6634814355       -3.3893397554        3.0117116063
 O        -5.7206264166       -4.2848346264       -0.5739621444
 C        -3.9728280448       -4.1271857670        2.7301826421
 C        -5.1430892258       -6.1652114655        1.5435945877
 C        -3.8723935758       -2.5963251417       -1.5085312116
 C        -2.7068031886       -1.8634865226       -2.1927181327
 C        -2.8909055764       -1.1863662846       -3.6192657718
 C        -3.2113182473        0.3546151713       -3.2422719432
 C        -4.6398718598        0.7881380421       -3.3792068228
 C        -1.5625969084       -1.2413109264       -4.4545719872
 C        -3.9208577319       -1.8438150365       -4.5676479275
 O        -1.5891330182       -1.9279335948       -1.6805859051
 O        -2.2734006041        0.9768611370       -2.7108859757
 C        -4.8993790478        2.0329705270       -2.4966867423
 C        -4.8770741580        1.7513520773       -0.9117343640
 C        -5.0037720792        3.0420420854        0.0913969125
 C        -3.7790388352        2.9482041979        1.0705857385
 C        -3.5279076340        1.6395695192        1.8917223144
 O        -4.7380464996        0.6320557421       -0.4787046311
 O        -2.9350556405        3.7931972082        1.0403158114
 C        -5.0098069106        4.3387163934       -0.6610932875
 C        -6.2977607790        2.9591722077        0.8101391673
 C        -2.1584827969        1.7397072917        2.6541340601
 C        -1.0750282328        1.3081623900        1.7187830369
 C         0.3955481877        0.8266115865        2.2089748698
 C         1.4314277191        1.0802318155        0.9854830943
 C         1.9058727553        2.4919691064        0.7167472682
 C         0.9143678384        1.7138266270        3.2836843071
 C         0.3762182589       -0.6986567491        2.6991339350
 O        -1.2492715541        1.2174029128        0.5216918798
 O         1.7243484625        0.1338688869        0.3546025600
 C         2.5543837238        2.7356464797       -0.6030743380
 C         1.8154820953        2.1797712801       -1.8028091967
 C         2.7751514498        1.4291310804       -2.8464956284
 C         3.0786370922        0.0048298326       -2.3684645206
 C         4.4589689676       -0.6003740542       -2.4586350179
 O         0.6051362647        2.3214983988       -2.0044706463
 O         2.0895591427       -0.6640198950       -2.0727650253
 C         1.9985806793        1.3063696164       -4.1394907352
 C         4.0855309939        2.2941036406       -2.8713185108
 C         4.7470338573       -1.3704873425       -1.2001920994
 C         5.2897091815       -0.4176866073       -0.2010029802
 C         6.8985726653       -0.4696204943        0.1505981255
 C         7.6040208227        0.6692794951       -0.6055826681
 C         8.7933591028        1.4290678080        0.1037916587
 C         6.9749522287       -0.2515251362        1.7247374753
 C         7.7094983667       -1.8265909405       -0.2123771609
 O         4.7573915393        0.5936610659        0.1741898376
 O         7.1308456013        0.8186460743       -1.7511312527
 C         9.6814768463        2.1982082007       -0.9777365747
 C        10.6067410955        3.1314727855       -0.2124385630
 C        11.9623889807        3.7653861657       -1.0216896000
 C        12.8803933062        2.5570904962       -1.3499318099
 C        13.9152600633        2.0681028400       -0.2409536498
 O        10.5983722676        3.0633295859        1.0020584506
 O        12.9305596573        2.0603947890       -2.4837058920
 C        11.4376730716        4.3800005000       -2.3420631737
 C        12.6931353258        4.7585302260       -0.1048996653
 H       -13.9068242657       -2.4810309866        2.0278949994
 H       -13.3868987289       -2.6530158453        3.6672243254
 H       -13.3687959214       -1.0263695885        2.8043719242
 H        -8.6827671791       -4.6964327917        3.4091304694
 H        -9.8897069695       -5.0267113752        2.0153510359
 H        -9.3634696920       -0.8541633150        4.1818452333
 H       -11.0494435649       -0.4235057498        4.1681356219
 H       -10.0473107582       -0.3255242271        2.7432010745
 H       -11.2769587157       -2.5601788732        5.3864032183
 H       -11.1235031435       -4.1951207157        4.8345163314
 H        -9.6685375668       -3.3404910430        5.1593066036
 H        -7.7334640829       -5.9977057739        1.4962526761
 H        -7.7776601274       -4.4844855483        0.4476881681
 H        -3.4283842430       -2.4968715627        0.6982591127
 H        -2.7856388641       -3.9537626804       -0.0356362532
 H        -2.8256408065       -4.1879727944        2.7110077973
 H        -4.2359008162       -4.4714659514        3.7640103615
 H        -4.0460514747       -3.0737311406        2.8134320601
 H        -4.1796203448       -6.6128634224        1.6147039996
 H        -5.6824632510       -6.4798610331        2.4643027657
 H        -5.6892267690       -6.3711989279        0.6538951433
 H        -4.7211379803       -1.9111205084       -1.5715242802
 H        -4.1210562393       -3.3963221087       -2.1114898862
 H        -4.7965899382        0.7803274865       -4.4814223148
 H        -5.2808438258       -0.1091092032       -3.1373267996
 H        -0.6354527889       -1.2787097062       -3.8230433632
 H        -1.5752495981       -0.4356418368       -5.1304870609
 H        -1.5545610006       -2.1884443000       -5.0660328585
 H        -3.4675234393       -2.7496827908       -4.7350606849
 H        -4.9618022949       -2.0223415841       -4.2483785877
 H        -4.0682822947       -1.3561080027       -5.5118138354
 H        -4.2827621032        2.8480856621       -2.8010092432
 H        -5.9316618701        2.2685040458       -2.4942451238
 H        -4.3319572845        1.3999467621        2.6054031694
 H        -3.4406489157        0.8257875427        1.1666857424
 H        -4.0607196105        4.5431404656       -1.0992128829
 H        -5.0928692706        5.1373254863        0.0806638478
 H        -5.8136745898        4.2579802713       -1.3854205046
 H        -7.1001392992        3.1596540329        0.1746837615
 H        -6.3856887705        1.9339899046        1.2397806897
 H        -6.3183961330        3.7607822736        1.5493637919
 H        -2.3123240640        1.0143212820        3.4309891610
 H        -1.9600193128        2.6722273300        3.2026378316
 H         1.1586585630        3.2422689745        0.8322698542
 H         2.6807628036        2.5667423443        1.5119894305
 H         0.7690613312        2.7810258875        2.9814446084
 H         2.0021112456        1.4605303503        3.6199335711
 H         0.2333963253        1.4722760680        4.1076261237
 H         0.8400542178       -0.8409249979        3.6831775451
 H        -0.6740981884       -0.8957417867        2.6637957280
 H         0.9434419204       -1.3395106415        1.9561278271
 H         2.6383855258        3.8257262274       -0.7060405199
 H         3.5606167146        2.2096762985       -0.5410305114
 H         4.4850331814       -1.2212699976       -3.3530453609
 H         5.2412484792        0.1378575736       -2.5518166567
 H         1.6978213383        2.2094581063       -4.6096473984
 H         1.1034022056        0.6923297625       -3.9788608388
 H         2.5979516003        0.7924078877       -4.8093681415
 H         4.8075064647        1.8565217060       -3.5529989800
 H         3.9370642528        3.2073233223       -3.4197502029
 H         4.6974477574        2.3264417299       -2.0627694490
 H         5.6207786114       -2.0526159435       -1.4520287274
 H         3.8434750086       -1.9233573057       -0.9439060294
 H         8.2362747905        2.2128530132        0.6577064871
 H         9.3001790586        0.8135051104        0.8356832550
 H         7.0434955979        0.7620676083        2.0795811712
 H         7.7692512828       -0.9604471671        2.1559382521
 H         6.0352267747       -0.5778180001        2.1627122265
 H         8.0833667692       -1.8127014241       -1.2373542821
 H         8.5501285361       -1.8208635409        0.5202278988
 H         7.0948786101       -2.6447472034       -0.0748819264
 H        10.3276073576        1.5415018000       -1.5440470392
 H         9.0471017496        2.5971140689       -1.7970515853
 H        13.4204721934        1.7731905832        0.6430527287
 H        14.4865655892        1.2362987910       -0.5748646888
 H        14.5852637724        2.8608832215        0.0148168704
 H        10.9825524455        5.2921519583       -2.1782845297
 H        10.7679254164        3.6970100819       -2.8659299339
 H        12.2530235108        4.5594856411       -3.0219179027
 H        13.5409112477        4.9759274867       -0.6528564632
 H        12.0973685912        5.6585840756       -0.0336942384
 H        12.9555499360        4.4960059333        0.8608781318
 Na       -0.2140449234        0.0241393984       -1.2465994458
