155

 C         5.4289309483        3.7514587594        4.6969086950
 C         4.6055286859        4.9046311848        4.1592730184
 C         4.5053969408        5.1804209739        2.6163956101
 C         2.9931564733        5.0541611105        2.3101819401
 C         2.2750382908        6.2506726816        1.6924452230
 C         5.2396298355        6.5320272576        2.4625432117
 C         5.1437970032        4.1095615276        1.6747327178
 O         3.8971030987        5.5836603009        4.8583353993
 O         2.3482901551        4.0841366811        2.5646194095
 C         1.7779379252        7.0658198601        2.9791826973
 C         0.2039684825        6.9257665970        3.2189227397
 C        -0.4362121823        6.3664745984        4.5259500411
 C        -1.6474893334        5.3724810048        4.2048369951
 C        -1.7453771394        4.5877508253        2.7766036761
 O        -0.5178135396        7.5248100050        2.4081139708
 O        -2.3116890463        5.0091734880        5.1196440455
 C         0.5831314210        5.4460354487        5.2195737980
 C        -0.9476037864        7.4600073363        5.4022895634
 C        -2.4164244540        3.2562200131        3.0382518052
 C        -2.4258047570        2.4155749752        1.7634960273
 C        -3.6937857998        1.4083266511        1.7441608059
 C        -3.2301069448        0.3841151313        0.6832397370
 C        -4.0679031647        0.1967174963       -0.6150348921
 C        -4.0046768282        0.6527500834        3.0466745169
 C        -4.9290365712        2.1692731083        1.2904729970
 O        -1.6979506783        2.6073016571        0.8150438333
 O        -2.2084819385       -0.2481221723        0.9556892967
 C        -5.2810311754       -0.7030528135       -0.2684710728
 C        -5.7431627354       -1.3034099397       -1.6463830337
 C        -6.8322790673       -2.4445891900       -1.6937275293
 C        -6.0921643302       -3.8517636332       -1.5142998233
 C        -5.0339340243       -4.1272793970       -2.5521159380
 O        -5.3026972642       -1.0035609714       -2.7030594238
 O        -6.3864620446       -4.4916874956       -0.5260740452
 C        -8.0871211751       -2.1928393397       -0.7040793059
 C        -7.4393177770       -2.4341067092       -3.1071847316
 C        -3.8457952672       -4.8665993488       -1.8754655059
 C        -2.9350769392       -4.0223554843       -0.9491886270
 C        -2.0734149288       -4.7294993060        0.1087709220
 C        -0.4668502446       -4.6305707993       -0.2123206643
 C         0.3917827483       -5.8541591867       -0.3015621435
 C        -2.2891219216       -3.8736975906        1.3993510612
 C        -2.5563751321       -6.1105330251        0.4932225825
 O        -2.8789132352       -2.8255633711       -1.0046792579
 O         0.0729979615       -3.5561581386       -0.2449152047
 C         1.4711028984       -5.7419715464       -1.3402619358
 C         0.8613607920       -5.3389588961       -2.6829010940
 C         1.8447721012       -5.2258777356       -3.8769828834
 C         1.7978584507       -3.6360116073       -4.4257082857
 C         0.4845035139       -3.2785836674       -5.2380504210
 O        -0.3361793729       -5.0602567927       -2.7924823436
 O         2.7001587314       -2.8980905569       -4.2305306120
 C         3.3116053490       -5.5331033364       -3.5742793227
 C         1.3255544921       -6.1556287775       -4.9355226838
 C         0.4308276134       -1.7256261435       -5.2852642901
 C        -0.0678581937       -1.0551603921       -3.9275922459
 C        -0.1064040845        0.5350242336       -3.8100946112
 C         0.1035351929        0.9728075982       -2.2951014667
 C         1.5232625637        1.5498870996       -1.8036556830
 C         0.9637713657        1.2319938320       -4.8029717345
 C        -1.4430677917        1.0044682985       -4.3239868330
 O        -0.3289535516       -1.7436480722       -2.9419300577
 O        -0.8309120499        1.0236682023       -1.5291588298
 C         1.7692432942        1.3256709368       -0.3313900556
 C         2.1646055608       -0.1508275271       -0.1561879221
 C         3.3871009442       -0.5675091899        0.6756317806
 C         4.1920733353       -1.7574171320        0.0085325917
 C         4.5824774735       -1.4883420819       -1.4525335357
 O         1.4249620412       -1.0457646353       -0.6180700648
 O         4.4232762381       -2.8000316340        0.5386257965
 C         4.4696698061        0.4286188891        0.9417428956
 C         2.6759127462       -1.1051241093        1.9666604784
 H         5.5851711623        4.1088204251        5.7231611994
 H         4.8008362836        2.8106402372        4.7833529102
 H         6.4425955053        3.6284410855        4.3345855793
 H         3.0031247691        6.7619311719        1.0926766982
 H         1.3568052870        5.9732870249        1.2282471221
 H         5.2803063228        6.8232072866        1.3828524703
 H         6.2368452927        6.5695620121        2.8345536211
 H         4.6511718544        7.2293274208        2.9672399611
 H         4.6525247654        3.2130420732        2.0873570526
 H         4.8953140639        4.3049920939        0.6489819734
 H         6.2373238903        4.0864344225        1.7615394649
 H         2.3356976374        6.7879049527        3.8249529594
 H         2.0140402325        8.1421127373        2.8298657267
 H        -2.2644351581        5.1929442827        2.0336169712
 H        -0.7258296928        4.5279003754        2.3110865074
 H         1.2389409384        6.1161887702        5.7814140885
 H         1.0952303745        4.8085875104        4.5029518672
 H         0.1765052254        4.8719777867        6.0139186551
 H        -1.3499924568        7.0099362869        6.2928357695
 H        -0.2787176501        8.2125089582        5.6821398991
 H        -1.7788041706        7.8931520828        4.8437701712
 H        -3.3982420486        3.5570935809        3.3235837299
 H        -2.0399627372        2.5992151775        3.8996862673
 H        -4.3562535500        1.2011107529       -0.8938664936
 H        -3.3526894600       -0.2463337247       -1.3604935681
 H        -4.0466471541        1.2723323010        3.8834258317
 H        -3.3228473672       -0.1318510376        3.2676269806
 H        -4.9711943844        0.1161528338        2.9877015152
 H        -4.5744943136        2.8040660512        0.3958376513
 H        -5.7915511571        1.5493307870        1.0652058882
 H        -5.3200442944        2.9312225356        1.9293656066
 H        -4.9077455439       -1.4782378443        0.3962595669
 H        -6.1308886513       -0.1530775777        0.1507897060
 H        -5.4820758580       -4.8255460390       -3.2723523456
 H        -4.6750206041       -3.0890830497       -2.9253043042
 H        -7.6576822300       -2.1844298637        0.3090235676
 H        -8.9322879726       -2.9726782772       -0.8356098472
 H        -8.6922208184       -1.2313812827       -0.9018469299
 H        -7.9970571542       -1.5179641693       -3.2938335581
 H        -6.7894026118       -2.4100584890       -3.9540923431
 H        -8.0767398639       -3.3434710521       -3.2158165798
 H        -3.2657536384       -5.5713192976       -2.5371914839
 H        -4.2390455635       -5.5744289169       -1.1884690471
 H         0.9720706495       -6.0870934671        0.6757721938
 H        -0.1204085037       -6.8602871607       -0.5402850346
 H        -3.2819766754       -3.6104830891        1.4399103341
 H        -1.8421893658       -2.9070744607        1.2336492730
 H        -1.7075771755       -4.3871983651        2.1749276469
 H        -1.9601641665       -6.5558005896        1.2790840274
 H        -3.6338388224       -6.1457846184        0.8204944230
 H        -2.5751501665       -6.8067432211       -0.3745392787
 H         2.1354809269       -4.9602718376       -1.0549793803
 H         2.0582571613       -6.6111274881       -1.4493975152
 H         0.5054452293       -3.6364968032       -6.2840464149
 H        -0.4159339773       -3.5339818791       -4.8018925653
 H         3.9103197903       -5.4285679496       -4.5422198828
 H         3.3656258710       -6.5671420545       -3.2939328522
 H         3.7338973221       -4.8723974170       -2.8414725846
 H         1.2399394336       -7.2509859325       -4.7558929393
 H         0.3149343613       -5.8285272020       -5.1551707938
 H         1.9500392543       -5.9573119905       -5.8303270492
 H        -0.0533722428       -1.2440204808       -6.1443227666
 H         1.4577248612       -1.4546918186       -5.4566570003
 H         2.3654360380        1.1184262532       -2.3464386559
 H         1.3640744631        2.5204429814       -2.1725557914
 H         0.7264884726        1.3503521797       -5.8711774543
 H         1.8718175732        0.6289179987       -4.8567273392
 H         1.3927417314        2.0995246098       -4.3082431618
 H        -1.6707512392        0.6024852979       -5.2912156670
 H        -2.2284337364        0.7336153053       -3.5798000765
 H        -1.5173094855        2.0487291748       -4.4413865433
 H         2.6364048656        1.9819295425        0.0570549085
 H         0.7791961633        1.3906248851        0.2260683376
 H         3.7706395933       -2.0795380345       -1.9435094929
 H         4.4058375316       -0.4367264520       -1.7752026111
 H         5.5477351956       -1.8405783146       -1.7390417323
 H         4.8165176481        0.9852440127        0.0291235299
 H         5.2949375430       -0.0605767101        1.5604985514
 H         4.0204119818        1.1241381368        1.6561192201
 H         2.2226577024       -0.2809566205        2.5722046407
 H         2.0540863979       -1.9279302707        1.6640536944
 H         3.4569418889       -1.4659027571        2.6331568529
 Na       -0.9579605264       -1.4005863542       -0.5893243044
