155

 C         4.6372285606        3.2618596118        4.8645696311
 C         4.2897297572        4.7606823918        4.4565292927
 C         4.5969767244        5.2978317501        2.8986835386
 C         3.1964751984        5.4561342237        2.3848327337
 C         2.6378913338        6.8563079586        2.0762285735
 C         5.3621302301        6.6307185341        2.8798749794
 C         5.4131420442        4.2618907729        2.1484246331
 O         3.7825717603        5.5253134913        5.2898300905
 O         2.4201026363        4.5057263626        2.4748826003
 C         1.6590377510        7.3817263857        3.2006122084
 C         0.2891549420        6.7535940153        3.0457871043
 C        -0.5886443254        6.4057183959        4.2571303304
 C        -1.7595117015        5.4471419159        4.0532736720
 C        -1.3757393216        4.1269538198        3.4051957320
 O        -0.0853470208        6.6878134049        1.8812315102
 O        -2.9045844603        5.6556401686        4.4636641157
 C         0.2768327141        5.8125576913        5.4162687202
 C        -1.1404612639        7.7998010591        4.5548231230
 C        -2.6984955018        3.3690476448        3.0984917247
 C        -2.7903541887        2.7156726983        1.6829030712
 C        -3.8156671660        1.5991214849        1.4056767113
 C        -3.1675156829        0.6317976345        0.3158630239
 C        -3.9123384386        0.3486943125       -0.9691158110
 C        -4.2140147836        0.5610230078        2.4609078652
 C        -5.1002180417        2.2787534093        0.7701377883
 O        -2.2687336173        3.3607517746        0.7917280002
 O        -2.1603076985        0.0461536752        0.6647570653
 C        -4.8238885349       -0.8406692889       -0.6878060057
 C        -5.4275226381       -1.4418762078       -1.9638059331
 C        -6.4834195892       -2.5957371724       -2.0566184264
 C        -5.6872876163       -4.0043921267       -1.7359012421
 C        -4.4246893882       -4.4291925200       -2.5373500037
 O        -4.9400020214       -0.9916491755       -3.0299886053
 O        -6.1205732356       -4.8565725778       -0.9881636638
 C        -7.6333553408       -2.3572627407       -1.1195285141
 C        -6.8898817783       -2.7713912375       -3.5649419126
 C        -3.4459440158       -5.3347098762       -1.7778057960
 C        -2.8454930977       -4.6976541205       -0.5230321796
 C        -1.9265639022       -5.5211659610        0.4784836190
 C        -0.5659252626       -4.9674963277        0.1045257663
 C         0.6141333793       -5.7747372552       -0.5358089808
 C        -2.3980775449       -5.2125224954        1.9634643341
 C        -1.9330658172       -7.0585155122        0.3123353360
 O        -3.1356325864       -3.5605520202       -0.1685664471
 O        -0.3217062721       -3.7689503231        0.3423407456
 C         1.6628858940       -5.2205499373       -1.4096644196
 C         1.0645282694       -4.8611310013       -2.7675245015
 C         2.1443006647       -4.4386615493       -3.9260549228
 C         1.7918952566       -2.9859077058       -4.4994930782
 C         0.4701270352       -2.9013261860       -5.3261254419
 O        -0.1002352606       -4.8990816086       -3.0679088648
 O         2.4598286433       -2.0203530429       -4.2199979126
 C         3.6234192474       -4.3569855870       -3.3296284085
 C         2.0529306355       -5.5161300406       -5.0005820096
 C        -0.0718056236       -1.3810249535       -5.4377634073
 C        -0.4812240102       -0.9060176362       -4.0511593837
 C        -0.1421006893        0.7336554973       -3.7960004634
 C         0.1297595561        0.7318256861       -2.2790822563
 C         1.4173833906        1.2103430128       -1.7625516319
 C         1.0564447328        1.2317884754       -4.5902845949
 C        -1.4095392947        1.6274665644       -4.1881842132
 O        -0.9763437737       -1.5746622029       -3.1971614776
 O        -0.8141993112        0.5377059286       -1.5322777297
 C         1.5582442351        1.0055428510       -0.2088730058
 C         1.8601484460       -0.4360687458        0.2204356288
 C         3.1599438067       -0.7947716830        1.0863708904
 C         4.0543748586       -1.8303933132        0.0968354317
 C         4.7919752825       -1.1560059791       -1.1406827393
 O         1.0324873378       -1.3271198791       -0.0284195694
 O         4.1711339724       -2.9985017034        0.3620338011
 C         3.9547682749        0.4013190242        1.5170588660
 C         2.5881964348       -1.7445675902        2.2426193410
 H         4.5948797966        2.9569799153        5.8926867342
 H         4.0920087856        2.6798752610        4.1999367809
 H         5.6870564777        3.1346632350        4.5150800556
 H         3.4603295477        7.5876720531        1.8754178188
 H         2.0904733636        6.9575906863        1.1269492545
 H         5.2330326991        6.9912605901        1.9127466707
 H         6.4451908844        6.7182872504        3.2341740786
 H         4.7507548459        7.3389426006        3.4940650588
 H         4.9166788809        3.2884164192        2.2147395798
 H         5.4912305400        4.4678899895        1.1035590509
 H         6.3374616353        4.1877121189        2.7320560014
 H         2.0980476638        7.0826003333        4.1694922543
 H         1.7320311854        8.4356580315        3.1708646700
 H        -0.9226697963        4.3256233258        2.4085161669
 H        -0.6825970821        3.7319968802        4.1904642242
 H         0.9258373415        6.6677908457        5.7366827773
 H         1.0635186476        5.1264445398        5.0332570960
 H        -0.2090553827        5.3815083640        6.2816690103
 H        -1.6715676953        7.6591367830        5.5044106704
 H        -0.3290054982        8.5687315916        4.6813068632
 H        -1.8252669440        8.0702220780        3.7544068666
 H        -3.4816956729        4.0647167840        3.1873299033
 H        -2.8588325369        2.5071934202        3.8127345932
 H        -4.5105546552        1.1419967589       -1.3438424695
 H        -3.2929749233        0.1305046211       -1.8203888581
 H        -4.5571128585        0.8505521598        3.5242352615
 H        -3.3122341044       -0.0448691207        2.6904523485
 H        -4.9862133683       -0.1341714696        2.1338349592
 H        -4.8599001343        3.0503904144        0.0151529734
 H        -5.8080960807        1.6682554326        0.3049446032
 H        -5.5222723632        2.8113928539        1.6272153612
 H        -4.4322823441       -1.6879218651       -0.1021327770
 H        -5.7347466091       -0.5007288152       -0.0976149450
 H        -4.6498799661       -4.8667352231       -3.4838757855
 H        -3.7808596486       -3.6022098723       -2.8561216598
 H        -7.2584684928       -2.1319547428        0.0108934109
 H        -8.3246188549       -3.1628786469       -1.0965621775
 H        -8.1303350740       -1.3503309239       -1.3656925368
 H        -7.5538643800       -2.0018625539       -3.8906170654
 H        -6.0257706019       -2.8475064634       -4.1451347651
 H        -7.4712886094       -3.7097205443       -3.7951885544
 H        -2.6079058828       -5.6138524441       -2.4975918028
 H        -3.7330497061       -6.3023065673       -1.4892068029
 H         1.0149850600       -6.4805179164        0.1956167821
 H         0.2317697159       -6.6226876969       -1.1581050549
 H        -3.3493490401       -5.6809371218        2.1301469662
 H        -2.3045826086       -4.1334745981        2.0892907291
 H        -1.8681385316       -5.7390441534        2.6656492934
 H        -1.1709813032       -7.5483918531        0.8124474609
 H        -2.8730159207       -7.5900740107        0.5688006047
 H        -1.7190584942       -7.3003860555       -0.7763983142
 H         2.1211137435       -4.2722372623       -0.9617699059
 H         2.4908352412       -5.8857644415       -1.5240706450
 H         0.8753178361       -3.2466492784       -6.3632818905
 H        -0.2703633846       -3.6301381116       -4.9958628889
 H         4.2384664768       -3.9203189324       -4.0719789847
 H         4.0212727183       -5.3348079171       -2.9936729499
 H         3.5246112703       -3.6528862823       -2.4789561271
 H         2.1715366666       -6.4664268133       -4.6017305802
 H         1.1271467259       -5.4207632575       -5.5125404596
 H         2.8283579765       -5.3341570315       -5.7923271273
 H        -0.9256304856       -1.1904177070       -6.1404830415
 H         0.7480771207       -0.8341897262       -5.8548073653
 H         2.2111073695        0.7082784961       -2.3824389912
 H         1.4719258042        2.2555840705       -2.1193390377
 H         0.9000178200        1.4126281371       -5.6283502766
 H         1.9335097630        0.5930411254       -4.5892182080
 H         1.3962076023        2.2554586024       -4.2759797247
 H        -1.4258127190        1.7151517277       -5.2885466523
 H        -2.3828388889        1.1483147870       -3.9760338818
 H        -1.3333386821        2.5988730344       -3.7011330914
 H         2.2194035870        1.7568153203        0.1636124198
 H         0.5171393735        1.0712661877        0.3020966132
 H         4.8075628098       -1.9658509736       -1.8973449197
 H         4.1722944515       -0.3657032754       -1.5641358624
 H         5.8196169185       -0.9368434753       -0.8783135371
 H         4.3518174528        0.9328389296        0.7033041364
 H         4.8208486225        0.1775263151        2.1422370927
 H         3.2575492999        1.0064793151        2.0924588757
 H         1.7738279998       -1.3423509695        2.7463747803
 H         2.0683389643       -2.5537449695        1.7155098110
 H         3.3930916308       -2.1938214190        2.8340368020
 Na       -1.2326870364       -1.7652641128       -0.6119445013
