155

 C         2.8042124734        3.8708853224        4.3078917971
 C         3.6672634183        5.1448670554        4.7667711697
 C         4.7882843723        5.6314988069        3.8436276047
 C         4.0578808870        6.0131745869        2.4699956395
 C         3.0780535504        7.2792057351        2.3810419398
 C         5.5320950365        6.8108304316        4.4175768368
 C         5.7464332080        4.4034291909        3.6396321298
 O         3.1622630533        5.7199428933        5.6696512013
 O         4.1486892074        5.2238530214        1.5678633647
 C         1.6305205625        7.2330269999        3.0236253427
 C         0.4494670856        6.3229882943        2.6317638681
 C        -0.7926922119        6.3928480217        3.6547988831
 C        -1.9709014710        5.4149280266        3.1258964981
 C        -1.6377071290        3.9510524549        2.7554456777
 O         0.5582485850        5.4573887896        1.7576252425
 O        -3.1028439557        5.7731879236        3.2794481872
 C        -0.5275301054        5.7320118125        4.9763550611
 C        -1.3290292899        7.8550067456        3.7932529212
 C        -2.8208187198        3.0781759893        3.0062636352
 C        -3.0488153663        2.1333935003        1.8010458516
 C        -4.3405733018        1.1907281980        1.6088815855
 C        -3.8787650249        0.1009488589        0.6083520506
 C        -4.1284831496       -0.0475270054       -0.8546694626
 C        -4.8563795779        0.6230853197        3.0233223316
 C        -5.3745995766        2.2314431025        1.0537992081
 O        -2.3379466152        2.2422771302        0.8189318157
 O        -3.1270280749       -0.6912101338        1.1207793912
 C        -5.3505172128       -0.8952572400       -1.2338632152
 C        -5.2235736626       -1.4159801887       -2.6270987264
 C        -6.0021575651       -2.6716354054       -2.9817210223
 C        -5.2098739848       -3.8444832235       -2.2191814825
 C        -4.4105911562       -4.8838109370       -3.0177798860
 O        -4.5031259040       -0.9096684011       -3.4371208692
 O        -5.2094535108       -3.9208880184       -1.0263765680
 C        -7.5198260105       -2.7213218208       -2.4896769474
 C        -6.0701160559       -2.8505969013       -4.5088961457
 C        -3.3430536695       -5.6604496063       -2.1527653692
 C        -2.4822546612       -4.7773517824       -1.2605052125
 C        -1.5257443415       -5.2712897876       -0.1942100864
 C        -0.0793767749       -4.7920168593       -0.5350286359
 C         1.0900622619       -5.8191168578       -0.6327301681
 C        -2.0210312239       -4.6471700562        1.1190129134
 C        -1.6482166219       -6.8087476123       -0.1033782978
 O        -2.5674460887       -3.5443807988       -1.3731764412
 O         0.1136618664       -3.6064568195       -0.6563477113
 C         2.3042696358       -5.1713238982       -1.4641987139
 C         2.0448386164       -5.1868954946       -2.9846342253
 C         2.6361632196       -4.1209612963       -3.8985138813
 C         1.6756534408       -2.9485837107       -3.6376506009
 C         0.1432293324       -3.1689287084       -3.8950747105
 O         1.2106171435       -5.9830422117       -3.3956309119
 O         2.1360175119       -1.8695350163       -3.2321163461
 C         4.0661983441       -3.6722362697       -3.5784232001
 C         2.3787094253       -4.4651495656       -5.3312696921
 C        -0.4314650117       -2.0157165347       -4.5595486612
 C        -1.0859355453       -0.9809418622       -3.6683712147
 C        -0.6248886627        0.4787631491       -3.3804918311
 C        -0.0560655733        0.3311867623       -1.8541152373
 C         1.3871666728        0.7746665182       -1.4940134146
 C         0.4028281950        1.1469995194       -4.3333503860
 C        -1.9557700366        1.2925651488       -3.2275930951
 O        -1.8821191135       -1.3931840900       -2.8945484281
 O        -0.8556338608        0.1472464956       -0.9223772077
 C         1.6067139981        1.0678097906        0.0823455152
 C         1.6054760365       -0.2506642461        0.8824243460
 C         2.9624492459       -0.7713398648        1.5406245277
 C         3.9884508142       -0.9479409712        0.3806671716
 C         4.9922336856        0.0739570991       -0.0371537314
 O         0.5913374068       -0.9372228051        0.9833675405
 O         3.9844371531       -2.0302787913       -0.2580482586
 C         3.3534462436        0.2172562417        2.6584352462
 C         2.6870611483       -2.1625996887        1.9867271503
 H         1.9465033053        3.7649166509        4.9498892373
 H         2.2793091151        4.1073819831        3.3901724001
 H         3.3339397435        2.9596208046        4.1916638860
 H         3.6273095510        8.1006806149        2.7625514537
 H         3.0001467044        7.3211383010        1.3095578473
 H         6.0489549861        7.4883897413        3.6830412275
 H         6.2087400951        6.4826396838        5.1458567469
 H         4.8589483656        7.4576040830        4.9067869802
 H         5.2546442717        3.5578148262        3.1747797164
 H         6.6269778233        4.5479786456        2.9544067212
 H         6.2201887058        4.0349308911        4.5488591843
 H         1.7119245432        7.0471891559        4.1847339398
 H         1.2000668815        8.2248714596        2.7811724523
 H        -1.4272252514        4.0739279153        1.6576760156
 H        -0.7651370810        3.5078315580        3.2601411365
 H         0.3873309765        6.0981388983        5.4831494600
 H        -0.2983674023        4.6408345524        4.8637623929
 H        -1.4093246563        5.6268638655        5.7070359983
 H        -2.2730913504        7.7922601088        4.3418239630
 H        -0.6814799862        8.4643199571        4.4862182945
 H        -1.4311297138        8.3926122867        2.8492410546
 H        -3.7603718992        3.6486962889        3.0383431437
 H        -2.8291602004        2.5624638857        4.0434182173
 H        -4.3273547542        0.9337132340       -1.4000291872
 H        -3.2841723749       -0.6481589129       -1.2460990847
 H        -5.1899936841        1.4138400307        3.6608691246
 H        -4.1424545179       -0.0143182910        3.6184230520
 H        -5.7320087069        0.0064807257        2.7378652201
 H        -4.9830218784        2.9313185771        0.3850824077
 H        -6.3134073028        1.7086370292        0.8702313353
 H        -5.6251849622        2.8474207749        1.9439019296
 H        -5.5108264350       -1.7613535457       -0.6539110812
 H        -6.2702063771       -0.3080447758       -1.0702704721
 H        -5.2169049658       -5.6907370484       -3.1947145683
 H        -4.0274596008       -4.5756270429       -3.9493716957
 H        -7.8056698116       -3.0053833748       -1.5211927828
 H        -7.9452273919       -3.5246501035       -3.0593475932
 H        -8.0306752261       -1.9369178207       -2.8492333838
 H        -6.8653736257       -2.1958242228       -4.9159795458
 H        -5.0152977951       -2.6026275229       -4.8996503845
 H        -6.3385732714       -3.8354118516       -4.7661944488
 H        -2.6182507947       -6.1338733648       -2.8769622558
 H        -3.9265933634       -6.3695644608       -1.5860251531
 H         1.3474104812       -5.7217187802        0.3467800080
 H         0.8187679404       -6.7418574914       -1.0729548421
 H        -3.0945237087       -4.6108663899        1.2180218725
 H        -1.8452499620       -3.6032082179        1.1268481975
 H        -1.6399992099       -5.1102480183        2.1039124037
 H        -1.0294351084       -7.1933848161        0.8099615315
 H        -2.6761677173       -7.0677332437        0.1209848915
 H        -1.1378070569       -7.3154643621       -0.9013420074
 H         2.3264039784       -4.0973858925       -1.0831068881
 H         3.2231620777       -5.6761975750       -1.3428700779
 H         0.0443823470       -4.1159353641       -4.4042594204
 H        -0.3971640446       -3.3711635333       -3.0109212912
 H         4.3400379341       -2.8068765707       -4.1473554606
 H         4.6985158282       -4.5681769678       -3.6188327428
 H         4.1155290077       -3.3481096223       -2.5406479037
 H         3.2883655492       -4.8579565582       -5.7736949267
 H         1.5682170819       -5.2153734455       -5.4751608358
 H         2.1369038643       -3.6171855651       -5.9194411162
 H        -1.0658057077       -2.4348247047       -5.3626374370
 H         0.4002303871       -1.5385417261       -5.0583250217
 H         2.1121190522       -0.0177583791       -1.6872134603
 H         1.5509291598        1.6572273946       -2.0968649652
 H        -0.0546029751        1.3566137268       -5.3292753367
 H         1.3037409813        0.4804349315       -4.4626604075
 H         0.5850041923        2.1623339660       -3.9957221045
 H        -2.3228887139        1.6681872826       -4.2152641818
 H        -2.6558041494        0.7052056539       -2.6849809362
 H        -1.6616942661        2.0761538528       -2.4603926816
 H         2.4510494707        1.6518991819        0.2791802247
 H         0.8732694964        1.7188702144        0.2311916601
 H         5.3329788449       -0.2599158645       -0.9811012994
 H         4.4002926822        0.9327936669       -0.2082157343
 H         5.7406368623        0.2370450467        0.7451949134
 H         3.3891308485        1.2236586504        2.2781970501
 H         4.3259071392        0.1067275184        3.0255458117
 H         2.6793523918        0.1942162643        3.4844970608
 H         1.8872313064       -2.1088952368        2.7685092857
 H         2.2952359026       -2.8235847390        1.2903834901
 H         3.5162451262       -2.6046169471        2.4678497913
 Na       -1.3434345828       -1.8777436831       -0.2096774559
