155

 C         2.5657526519        3.9906658503        4.2261509344
 C         3.3092437339        5.1606548239        4.8033475901
 C         4.5024905680        5.6439464270        3.9003489028
 C         4.0329563817        5.9125561884        2.4687919891
 C         2.9757653488        7.0841924614        2.2121240189
 C         5.0501042850        6.8972639550        4.6279624991
 C         5.6476752094        4.7361234807        3.7908882440
 O         3.0538274400        5.7648858449        5.8525138594
 O         4.3519219796        5.2175295554        1.5308476988
 C         1.8212780543        7.1655811007        3.1910314110
 C         0.7338867260        6.1438730603        2.7969144630
 C        -0.7105563206        6.3283194422        3.5713616702
 C        -1.9326501876        5.4918633997        3.1148337600
 C        -1.7531972099        4.0484854363        2.6102218837
 O         0.9255429140        5.3492669346        1.9724416593
 O        -3.0350599934        5.9911852043        3.0245069788
 C        -0.3167695270        5.8903931840        5.0617305202
 C        -1.1200773160        7.8617904788        3.5483921342
 C        -2.9070573768        2.9893213602        2.8965862034
 C        -3.0981569878        2.0889854270        1.6450997868
 C        -4.3116282672        1.0684779038        1.6483218813
 C        -3.7607498227       -0.0300857625        0.6577440405
 C        -4.2941820703        0.0314657683       -0.7903177033
 C        -4.7066382073        0.3029454025        2.8763867340
 C        -5.5400454690        1.8424839103        1.0653499080
 O        -2.3248103288        2.1682323736        0.7033303657
 O        -2.9679525793       -0.8912499800        1.0921817046
 C        -5.4270607241       -1.0226205973       -1.1028812760
 C        -5.3139624482       -1.4344635053       -2.6169417110
 C        -6.0039837171       -2.7560827442       -3.1593363255
 C        -5.2140355360       -3.8689047752       -2.4126567904
 C        -4.1867167317       -4.7739045626       -3.1157342263
 O        -4.8000500841       -0.6987054467       -3.4228893469
 O        -5.3426983628       -3.9538644971       -1.1949727522
 C        -7.5018951932       -2.8555637365       -2.7129538577
 C        -5.6864532571       -2.9055200624       -4.7028874579
 C        -3.3283132196       -5.6111181135       -2.1358365672
 C        -2.5527456050       -4.7019192346       -1.1956908270
 C        -1.5523040349       -5.3159544120       -0.1012946074
 C        -0.0448967568       -4.8564835251       -0.4721169519
 C         1.1114005230       -5.8755275910       -0.6655398757
 C        -2.0055047364       -4.6621984749        1.1883967265
 C        -1.7555443015       -6.8372690018        0.0800757463
 O        -2.6712007908       -3.5501193452       -1.3938024984
 O         0.1133929788       -3.6793121752       -0.7124672026
 C         2.2806835155       -5.2375340674       -1.4854185679
 C         2.1596255704       -5.2581176086       -2.9904885180
 C         2.6747434678       -4.0495369083       -3.9490690494
 C         1.7268445205       -2.7729119527       -3.6935910552
 C         0.2808619297       -3.0878066931       -3.9200477606
 O         1.5853972848       -6.2220936551       -3.4641564402
 O         2.1706591003       -1.7891988207       -3.1528651595
 C         4.2019322729       -3.7507532060       -3.6769879389
 C         2.5717850157       -4.4559906814       -5.4213170817
 C        -0.4328122356       -1.7621132521       -4.5395620313
 C        -1.2187977753       -0.9555641096       -3.6071104317
 C        -0.7234783323        0.4678531052       -3.2652816888
 C        -0.1195538771        0.5081461668       -1.7011573145
 C         1.3372865094        0.7293018344       -1.3873170841
 C         0.3612324705        0.9766628291       -4.3211319186
 C        -1.8782987757        1.6221430192       -3.2198353556
 O        -2.1628648704       -1.4676759646       -2.9755215356
 O        -0.8835649124        0.3803401150       -0.7983913137
 C         1.5453429786        0.9010128741        0.1519046331
 C         1.5520336879       -0.4200915938        0.8700802888
 C         2.9065022178       -0.7884547942        1.6419314904
 C         4.0179903351       -0.7839451194        0.4525517239
 C         4.8825411853        0.4878823768        0.2853225070
 O         0.6033895658       -1.1587880934        0.9511330157
 O         3.9774468274       -1.5558081895       -0.4264804622
 C         3.3864317010        0.1823616285        2.7180900870
 C         2.7387629417       -2.1095554114        2.3706493777
 H         1.5594700586        3.9682764759        4.7182709877
 H         2.3176206756        4.1285197013        3.1714613346
 H         3.0901146634        2.9972541658        4.4155833814
 H         3.6139254594        8.0131432297        2.1997691865
 H         2.6762971271        6.8177595052        1.1892162700
 H         5.8245705963        7.3396547055        4.1118414118
 H         5.3814614576        6.5422601732        5.6751639077
 H         4.3491061023        7.7273861066        4.8955387564
 H         5.6194649741        4.0108617269        2.9669553781
 H         6.5829963577        5.1677825743        3.5897503952
 H         5.7442398926        4.1339385384        4.7104310596
 H         2.1001290331        7.0240912221        4.1775681963
 H         1.2900172174        8.1387214056        3.1301535977
 H        -1.7456909535        4.0681283768        1.5276158819
 H        -0.7668909245        3.6873658796        2.8845782418
 H         0.3480944353        6.5629061966        5.5813894028
 H         0.0256243609        4.9089143044        5.3150294488
 H        -1.2329971220        5.8896645134        5.5817906283
 H        -1.9616417250        7.8969679520        4.2234350648
 H        -0.3902706449        8.5148523820        3.9798139050
 H        -1.4589331526        8.2117747402        2.5839046425
 H        -3.8287124579        3.4811031616        3.2466617620
 H        -2.7719769597        2.2457954329        3.6237056705
 H        -4.6372912556        0.9565019260       -1.0951505504
 H        -3.5322525061       -0.3317447878       -1.4543212191
 H        -5.1224293762        0.9980728783        3.6364606465
 H        -3.8210484987       -0.1178229238        3.2361159188
 H        -5.3652877253       -0.4663983941        2.6379649088
 H        -5.3000217400        2.0223333323        0.0046678514
 H        -6.3976078234        1.2211019907        1.2734360771
 H        -5.6804141897        2.8588416283        1.4652621424
 H        -5.2468058284       -1.9208931381       -0.4320274155
 H        -6.4655411176       -0.7444950545       -0.9611843250
 H        -4.6797910959       -5.3314382749       -3.8276254787
 H        -3.4029085432       -4.1190171865       -3.5959139158
 H        -7.4705210025       -2.8056141150       -1.6252888665
 H        -8.0401625897       -3.9164394610       -2.9321539098
 H        -8.1362938598       -1.9988009159       -3.1703173842
 H        -6.1863640779       -2.1724954341       -5.2946687522
 H        -4.6654657434       -2.9499906729       -4.8423001316
 H        -6.0742600192       -3.9345978566       -4.9773795259
 H        -2.6838391899       -6.2777790208       -2.6647196978
 H        -4.0482864541       -6.1020608238       -1.4555687690
 H         1.5394580748       -6.2222155146        0.3477595194
 H         0.7721125976       -6.6342686543       -1.4131783276
 H        -3.1018694918       -4.8541618010        1.4898016246
 H        -1.9200654629       -3.5442755456        1.2178102279
 H        -1.5538035744       -5.1083855402        2.0454074142
 H        -1.1005462359       -7.1979198901        0.7715540886
 H        -2.7884706298       -7.0095840222        0.3968128900
 H        -1.4022798225       -7.3190678872       -0.8356841422
 H         2.4648237353       -4.2150706093       -1.2288005985
 H         3.1828343351       -5.8743608923       -1.1957259079
 H         0.3935460892       -3.9508319371       -4.6109676030
 H        -0.2820797495       -3.5583766153       -3.0627179025
 H         4.4098837193       -2.8263931861       -4.2053491217
 H         4.7636457586       -4.6070742781       -4.0280187371
 H         4.4901011713       -3.5850303649       -2.6240667180
 H         3.4314372395       -5.0706051133       -5.6609064181
 H         1.6846077280       -5.0482425146       -5.6133816894
 H         2.5465751713       -3.5866946534       -6.1682916388
 H        -1.1114094671       -2.0647824223       -5.3635049373
 H         0.3477230118       -1.1909343609       -5.0778531809
 H         1.9584258737       -0.1591536470       -1.5541676987
 H         1.6401987253        1.6266152687       -1.9643691094
 H        -0.0687307412        1.0544330962       -5.2983480735
 H         1.2579044062        0.4063345634       -4.3671956575
 H         0.5501869740        2.0271355115       -4.0349573861
 H        -2.2406765254        1.6676631790       -4.2333715286
 H        -2.6444028776        1.2286714361       -2.5679533419
 H        -1.5486264829        2.5484718168       -2.8075338018
 H         2.4569703785        1.5449101469        0.3116412658
 H         0.6139767488        1.5883326829        0.4200901072
 H         5.8536141078       -0.0380516905        0.2005868743
 H         4.6254261809        0.9920171646       -0.6685550579
 H         4.8384023266        1.1754667867        1.1201814104
 H         3.6620782069        1.2238158712        2.5328325194
 H         4.2881587267       -0.2130114741        3.2978752700
 H         2.5021580862        0.1947047920        3.3863133854
 H         1.7266167207       -2.2690079142        2.6808514518
 H         2.8002386981       -2.9435505216        1.5789379682
 H         3.4846430673       -2.3432143632        3.1899738138
 Na       -1.4405479014       -1.9117739052       -0.3176462918
