155

 C         3.9394678187        3.9420665989        6.3625912472
 C         2.9299729802        4.8507328807        5.7536311012
 C         3.4718392830        5.8336444503        4.5886308714
 C         3.0732489021        5.0339159481        3.2128263346
 C         2.6479186766        5.7609059944        2.0157978283
 C         2.6624575523        7.1094611076        4.8550701301
 C         4.9331619722        6.1274200966        4.4747080947
 O         1.7870130149        4.9807960810        6.2252442322
 O         3.4165533275        3.8413564506        3.0744355159
 C         1.2597592488        6.3821690243        2.0441440469
 C         0.2217409840        5.5597137442        2.8358440531
 C        -1.0586358134        6.2511029539        3.2152877220
 C        -2.2504314149        5.7819092332        2.0569044411
 C        -2.3068730417        4.2961678538        1.8192661950
 O         0.4181919177        4.3023977543        2.9954597222
 O        -2.9524305907        6.5693602533        1.5088404628
 C        -1.4947588242        5.6441050775        4.5574630383
 C        -1.1621682644        7.7319958254        3.1819174161
 C        -3.8328538303        3.8653294585        1.6714993246
 C        -3.9836083016        2.5128305094        1.0627059392
 C        -3.8054606787        1.1593560981        1.8589871634
 C        -3.6155908189       -0.0950155880        0.8535673073
 C        -4.6910349207       -0.1195964098       -0.1642941297
 C        -2.5230755499        1.1983453445        2.8134744181
 C        -5.0019952401        0.9585421785        2.8698804076
 O        -4.1544871367        2.4733718434       -0.1400388382
 O        -2.6611988460       -0.8778968016        0.9260149352
 C        -5.0986466319       -1.4208845130       -0.8155657669
 C        -5.5089336741       -1.2179695546       -2.2681647061
 C        -5.7688150989       -2.5073374912       -3.2132432727
 C        -5.1677545471       -3.8418267148       -2.4306966423
 C        -3.7703092605       -4.4240531885       -2.9306807226
 O        -5.7640017468       -0.1454830706       -2.7497810433
 O        -5.7320955373       -4.3605252507       -1.5050668790
 C        -7.3313754524       -2.6897057101       -3.2590884690
 C        -5.1416118105       -2.3057055664       -4.6623664424
 C        -3.2017979670       -5.5483091902       -2.0483633796
 C        -2.4305940540       -5.0472505026       -0.8221998991
 C        -1.3492581601       -5.8852792816       -0.2986381618
 C         0.0449947485       -5.3231050987       -0.8912748788
 C         1.2214354415       -6.3307836018       -1.3415097283
 C        -0.9813837623       -5.5871031439        1.2561267537
 C        -1.5425618354       -7.3708536156       -0.5100372345
 O        -2.6450619534       -3.8944447969       -0.3397591493
 O         0.3643215736       -4.1380160043       -0.8740677273
 C         2.4215340672       -5.5123377725       -1.8227907794
 C         2.1878002009       -4.7506427766       -3.1542402853
 C         3.3141140911       -3.8949276705       -3.8393846404
 C         2.7125418065       -2.4772619835       -4.1635754836
 C         1.5314264588       -2.5866789778       -5.2378397167
 O         1.1322498586       -4.9767687158       -3.6823718161
 O         3.0539134490       -1.4853349195       -3.5384663941
 C         4.5641186630       -3.7895691676       -2.8664463638
 C         3.6309502706       -4.6538181001       -5.1550129444
 C         0.7804177403       -1.3094584463       -5.4588944890
 C         0.0619163979       -0.9608777142       -4.1697967318
 C        -0.0260801279        0.5721682052       -3.8187194211
 C        -0.0631159045        0.4046804620       -2.1927446097
 C         1.1919766660        0.8267784711       -1.2745645706
 C         1.3087081036        1.3301506717       -4.2795399739
 C        -1.2177855251        1.2135377615       -4.3999742203
 O        -0.5478267258       -1.8906448655       -3.6394072452
 O        -1.0238152534       -0.1163584390       -1.6433676805
 C         0.9082786850        0.7975333784        0.1928648307
 C         1.2810192222       -0.4469741060        0.9009763247
 C         2.5246660043       -0.4682957021        1.7619442500
 C         3.7645920136        0.5124746697        1.3950147942
 C         4.6567170436        1.0541097817        2.4804480123
 O         0.6631455379       -1.4843456322        0.7176397165
 O         3.9461545164        0.9169973429        0.2992312196
 C         1.7694676033        0.0538660863        3.1677264490
 C         2.9086705682       -1.9197515560        1.9889899509
 H         3.6861687094        2.8707180546        6.4712101678
 H         4.9043491121        3.9693408011        5.6996901275
 H         4.2794220250        4.4560526972        7.2715150791
 H         3.4080485250        6.4616843296        1.5804594859
 H         2.6199383179        4.9467596399        1.3419011313
 H         2.9607364733        7.8767887024        4.0369795270
 H         2.7369439903        7.3923835887        5.8748642108
 H         1.6161812256        6.8488221172        4.8211533631
 H         5.5584784863        5.2871267575        4.2847292667
 H         5.1955718867        6.7608978294        3.5989359123
 H         5.3305013398        6.5975544632        5.3625573363
 H         1.2919288029        7.4373575123        2.5222237374
 H         0.8594836426        6.4278720012        0.9801567252
 H        -1.7975393491        4.1049169351        0.8955350335
 H        -1.8311310527        3.7551650767        2.7027041044
 H        -0.5956097804        5.5157520298        5.1054941776
 H        -1.8679693937        4.6674839250        4.4080601880
 H        -2.3209652475        6.1601443320        4.9808573922
 H        -2.1157663328        8.0149012103        2.7409196847
 H        -1.0779709159        8.3117115590        4.1186686053
 H        -0.4316156402        8.0593528965        2.4688608883
 H        -4.2502967158        4.6057546455        1.0508706139
 H        -4.2569454013        3.9080036759        2.6592772694
 H        -5.5945526466        0.4551364413        0.1799949024
 H        -4.2731334471        0.5033822565       -0.9731237230
 H        -2.7549668084        1.8682100126        3.5396448408
 H        -1.6258217635        1.4897298900        2.2727054408
 H        -2.4149027527        0.1617981772        3.2006896350
 H        -6.0140458659        0.8191355972        2.4912703850
 H        -4.8144171925        0.3044530171        3.7446042859
 H        -5.1263514130        1.9325887697        3.3076963039
 H        -4.2680273632       -2.1072638114       -0.6409808314
 H        -5.8668878106       -1.9185450026       -0.2086114190
 H        -3.8586795499       -4.7285308462       -4.0326903618
 H        -3.0745570699       -3.5894518428       -2.8584801097
 H        -7.6161263675       -3.1820376996       -2.4553067205
 H        -7.4926383588       -3.4221066622       -4.0918792528
 H        -7.8422207630       -1.8228597376       -3.4447936212
 H        -5.5923860169       -1.4695321339       -5.2018837957
 H        -4.0016709998       -2.1275081426       -4.5707775153
 H        -5.1726940105       -3.1515796392       -5.2431016783
 H        -2.6377496268       -6.2330836344       -2.6729808519
 H        -3.9317174093       -6.2021508816       -1.5597404104
 H         1.4553964733       -7.0112682029       -0.5503255471
 H         0.9277617676       -7.0437655389       -2.1257134795
 H        -1.7549212943       -5.8460770998        1.9499234258
 H        -0.7004537154       -4.5911331672        1.5512546948
 H        -0.1691641486       -6.2742904244        1.5920259360
 H        -0.6936086940       -7.9099722983       -0.0182285307
 H        -2.3792618360       -7.7153039072        0.0195254143
 H        -1.4517079696       -7.6376658375       -1.5148089036
 H         2.7451209215       -4.8064048959       -1.0264824132
 H         3.2297026138       -6.2193071540       -1.9712808113
 H         1.7519915377       -3.0286803925       -6.2494654784
 H         0.8006376264       -3.2139437516       -4.8029495688
 H         5.5086107702       -3.5103925031       -3.3497961382
 H         4.7308106109       -4.7992663001       -2.4425607157
 H         4.4445364044       -3.1302811936       -2.0120108711
 H         4.2760385654       -5.5468978799       -4.9486967403
 H         2.7228222301       -4.9756788458       -5.7561590842
 H         4.1565139530       -3.9421129235       -5.7456273420
 H        -0.1444603109       -1.5731147808       -6.0565185997
 H         1.4119364416       -0.5693762640       -5.8902579444
 H         2.0931709487        0.3027456870       -1.6505075250
 H         1.3372549937        1.8521211787       -1.6766795735
 H         1.2101511726        1.5975545036       -5.3040793012
 H         2.0569608307        0.5258533669       -4.2754601107
 H         1.5438410517        2.2139203066       -3.6892043703
 H        -1.2763576783        0.9074313196       -5.4377858297
 H        -2.1956677819        1.0423761793       -3.9328620617
 H        -1.1244195037        2.2821991291       -4.3528927620
 H         1.3165489062        1.6480833891        0.7206614145
 H        -0.1054943351        0.9140667325        0.4605053207
 H         5.5139677049        1.4978658364        1.9810134794
 H         3.9941895072        1.8113282803        2.9428897412
 H         4.9052758354        0.1808365981        3.1316987432
 H         2.3342194529        0.4412680052        4.0619173824
 H         1.2894410427       -0.8303373086        3.5661047073
 H         0.9362155468        0.6915439931        2.7784564725
 H         2.0167979090       -2.6478360977        2.0890820109
 H         3.5126305213       -2.3309471536        1.1896889291
 H         3.5429096965       -1.8848812479        2.8907520408
 Na       -1.0327750459       -2.1572795726       -0.3470024556
