155

 C         4.1460920350        3.9312250380        6.6899212354
 C         3.0677507967        4.9927137309        6.4136864754
 C         2.9237159606        5.6290903425        5.0061936548
 C         2.6244140794        4.5558859253        3.9142226946
 C         2.3867137609        4.9768336708        2.4666273583
 C         1.9569639393        6.9277783094        5.0368824954
 C         4.3420691471        6.2191302899        4.6079027858
 O         2.3171959077        5.4148744465        7.2298243902
 O         2.8569014562        3.4077068307        4.1709315235
 C         1.0532153513        5.7092536397        2.0163217938
 C        -0.2255430297        5.2579228105        2.8614486299
 C        -1.3256840915        6.3978780292        3.0016931583
 C        -2.4960180177        6.2149259260        1.7914827973
 C        -2.8692967354        4.9065941654        1.0687461910
 O        -0.3849618495        4.0953083875        3.1771910070
 O        -3.0300355971        7.2548394694        1.4038257312
 C        -2.1176890830        6.0039964656        4.3379173440
 C        -0.9547747649        7.9305129552        3.0013364832
 C        -3.5241144703        3.8281314780        1.9193112011
 C        -3.7763543579        2.5271025868        1.1022831535
 C        -3.5876802612        1.2030133729        1.8798462943
 C        -3.4518677327        0.1423579251        0.6249210180
 C        -4.6338356317       -0.3181079906       -0.1229012042
 C        -2.2093975048        1.1787663811        2.6017069080
 C        -4.7043142019        0.8799112823        2.9523875200
 O        -4.2352258108        2.4874758152       -0.0196680933
 O        -2.3582837640       -0.3291794711        0.4169022203
 C        -4.4059864525       -1.5859658838       -0.9739523431
 C        -5.2227999757       -1.5033528917       -2.3001422363
 C        -5.6618504430       -2.9163257192       -3.0731006229
 C        -4.8939296743       -4.1813388182       -2.7168959852
 C        -3.6763124225       -4.7946914249       -3.4504863308
 O        -5.4691555926       -0.4652054768       -2.8856797117
 O        -5.2544947711       -4.8055732789       -1.7226875733
 C        -7.1897796622       -3.1667010834       -2.6962339691
 C        -5.6324163797       -2.6916615400       -4.5468021353
 C        -2.8397071676       -5.7329354167       -2.6219603571
 C        -2.2280955703       -4.9711584047       -1.4663250980
 C        -1.2964734704       -5.8163493529       -0.5047209119
 C         0.2458595226       -5.1687126839       -0.8645592550
 C         1.3223423563       -6.1294913737       -1.3346397193
 C        -1.6583106788       -5.3137958506        0.9255805916
 C        -1.4231604719       -7.3045635255       -0.6092423047
 O        -2.4455205942       -3.7583932732       -1.3541386940
 O         0.4341781047       -4.0226114353       -1.0494819116
 C         2.6811788970       -5.3929054349       -1.7789453416
 C         2.5319133874       -4.9251143461       -3.1985467638
 C         3.5677008252       -3.9564964256       -3.8772896910
 C         2.8356072643       -2.6636308362       -4.1476533085
 C         1.8854807866       -2.7157251580       -5.3805344936
 O         1.5749095848       -5.3462617101       -3.8783972798
 O         3.0425812313       -1.6818114969       -3.4748587679
 C         4.8769155140       -3.7140498399       -3.0517692956
 C         3.8978956316       -4.5999509259       -5.2429098215
 C         0.9223485246       -1.5237269030       -5.5291504268
 C         0.3202329974       -1.1378136260       -4.0740050418
 C         0.1021518553        0.4143540034       -3.7816572526
 C        -0.1033846903        0.5433821371       -2.1706043522
 C         0.9741350763        0.9460070423       -1.1737490352
 C         1.4116623846        1.1825034338       -4.2120056208
 C        -1.0633540942        0.9697943847       -4.5854408916
 O         0.0586783836       -1.9211883622       -3.2135318732
 O        -1.2296657695        0.1847886035       -1.8663878580
 C         0.4690815910        0.8759228353        0.2281862255
 C         1.2256483658       -0.3556919089        0.8882138029
 C         2.1516596723       -0.0766211992        2.1329003490
 C         3.2417525951        1.0127448264        1.8294795187
 C         4.4638604780        1.0273913853        2.7749118282
 O         1.0613328367       -1.5049062141        0.5727375481
 O         3.2040423142        1.7405127255        0.8150895234
 C         1.2060261815        0.4534527567        3.2945933614
 C         2.7482561252       -1.5237509730        2.5843313932
 H         4.2682063094        3.3016190148        5.8193547662
 H         5.1107878422        4.3299161621        6.8259958761
 H         3.8339119854        3.4042593251        7.5688077077
 H         3.1781136080        5.6986196901        2.1222566800
 H         2.4735432619        4.0275891881        1.9439646140
 H         2.0018611210        7.3689850132        4.0830313867
 H         2.5234974771        7.5737915558        5.7212331465
 H         0.8441036230        6.7170050504        5.2656716124
 H         5.0530951255        5.4258848149        4.8324661835
 H         4.4338427080        6.5323909377        3.5360144764
 H         4.6416574720        7.1076195362        5.1800383725
 H         1.1984472588        6.7915703041        2.1689306298
 H         0.8737805864        5.5987483121        0.9925898283
 H        -3.5063419456        5.0784577819        0.1782520462
 H        -1.9854102652        4.4085044083        0.6103371621
 H        -1.5214655034        6.2310347603        5.2582607635
 H        -2.2610589285        4.9214933954        4.1242006218
 H        -3.0192098434        6.6063349240        4.5027143615
 H        -0.6268541657        8.2579673400        1.9842628147
 H        -1.7921625843        8.5263740613        3.2050041540
 H        -0.1594649706        8.2124243698        3.7136401101
 H        -4.4181546436        4.2483030624        2.4142949678
 H        -2.8919650221        3.5417843286        2.8197981103
 H        -5.4809359364       -0.5949967282        0.5366468634
 H        -4.9920859534        0.4225938129       -0.7777533494
 H        -2.4058777503        1.7688282078        3.5311249303
 H        -1.4791771990        1.6972008341        2.0512234070
 H        -1.8885073266        0.1410338731        2.8883124175
 H        -4.2771984851        0.4898086479        3.9295590569
 H        -5.1926793951        1.8333305556        3.2374227762
 H        -5.4933686781        0.3027406407        2.6051474150
 H        -3.4031224607       -1.7084694140       -1.3307749322
 H        -4.5237820852       -2.5841425731       -0.4985296508
 H        -4.1596756646       -5.3397996183       -4.3825060660
 H        -3.0399099948       -3.9870747296       -3.8305848690
 H        -7.0769860316       -3.4851844657       -1.5683998358
 H        -7.6011526731       -3.9542613830       -3.2710720707
 H        -7.9316779182       -2.2586378884       -2.7090357064
 H        -6.1537747518       -1.7613132029       -4.7572881482
 H        -4.6138100412       -2.5656057679       -4.9186627110
 H        -6.1467700656       -3.4777142780       -5.1311494746
 H        -2.0551508258       -6.0138236631       -3.3470300944
 H        -3.3198351200       -6.6797185872       -2.3651717394
 H         1.5355557465       -6.9843227642       -0.6175537003
 H         0.9487058102       -6.4731734002       -2.3945505063
 H        -2.6060789127       -5.8748513919        1.3568320128
 H        -1.6805216855       -4.1792577491        0.9713506023
 H        -0.8173860091       -5.5291338094        1.6121254241
 H        -0.7874339324       -7.8214804246        0.0486111799
 H        -2.4963088952       -7.5605476260       -0.4772557011
 H        -1.3921519960       -7.7250242302       -1.6042801927
 H         2.9318869147       -4.5153588058       -1.1224671501
 H         3.3754917006       -6.1913690056       -1.8019240008
 H         2.4936788380       -2.6641131151       -6.3661955162
 H         1.3718636862       -3.6466501339       -5.5770192476
 H         5.3348748068       -2.7751385451       -3.5209643141
 H         5.5079954763       -4.5520113752       -3.2992509706
 H         4.9211902434       -3.5798212058       -2.0124510540
 H         4.4385580773       -5.5559655431       -5.0495635103
 H         3.0093449396       -4.8031382808       -5.7632062683
 H         4.5499458898       -3.9804639421       -5.7810779557
 H         0.1161165365       -1.5100900194       -6.2816747578
 H         1.4358985805       -0.6726370370       -5.9923550580
 H         1.8548512490        0.2341283141       -1.2690461132
 H         1.3656797057        1.9751291085       -1.2553440971
 H         1.5448014962        1.1143532407       -5.3325146803
 H         2.2255397661        0.7136439542       -3.6849949731
 H         1.4718065976        2.2399634130       -4.0438274697
 H        -1.0107730469        0.9030101712       -5.6693936183
 H        -2.0593241636        0.5928176264       -4.3827234461
 H        -1.0570589028        2.0473606819       -4.4514999478
 H         0.7379495655        1.7758032861        0.7428314252
 H        -0.6858332995        0.6346946420        0.3603910743
 H         4.2172503604        0.5288321372        3.7025904893
 H         5.3368443722        0.5685102444        2.2500329550
 H         4.6662174500        2.0698021484        2.9312511272
 H         1.7448466714        0.8784597538        4.1538023126
 H         0.5404275298       -0.3265792334        3.5805315539
 H         0.5890604519        1.2424030851        2.9511640779
 H         1.9774901891       -2.2995826853        2.5186953085
 H         3.5062510760       -1.7375018618        1.8672789639
 H         3.2021551765       -1.4796217424        3.5389094879
 Na       -0.8089938559       -1.9591592978       -1.0943052390
