155

 C         4.1405507527        3.9053444607        6.8192733040
 C         3.1486218273        5.0619478759        6.5571782276
 C         2.9760560896        5.6461783007        5.0857731673
 C         2.5639117760        4.4634154214        4.0876074417
 C         2.0679278433        4.6510001977        2.5761833703
 C         1.8713160485        6.7166507975        5.0572668000
 C         4.3836719794        6.1908804922        4.6751901870
 O         2.4372081331        5.5003121543        7.4594069646
 O         2.6588196561        3.2767708422        4.4029215335
 C         0.9989010896        5.6687840400        2.1526490019
 C        -0.3978324278        5.3173378653        2.6473535413
 C        -1.5929190012        6.3146335064        2.8548022365
 C        -2.6483267830        6.2746392859        1.6285767428
 C        -2.8488097785        4.8750168751        1.0569690153
 O        -0.6156261586        4.1771996397        3.0847355548
 O        -3.1172301034        7.2673172122        1.2518301963
 C        -2.3196997257        5.9972045813        4.2460163508
 C        -1.0101844316        7.8346991919        3.0013251367
 C        -3.4292498702        3.8156210751        1.9715951659
 C        -3.7163983454        2.6175462460        1.1190995984
 C        -3.5539737297        1.0738079878        1.7686285939
 C        -3.3677295665       -0.0452141278        0.6584707657
 C        -4.5482830535       -0.4093447578       -0.2352668430
 C        -2.2878792501        1.0788990586        2.6606087873
 C        -4.7819312315        0.6899615383        2.5681334307
 O        -4.1612311415        2.7412648464        0.0116345203
 O        -2.3073645841       -0.6856258838        0.6112138428
 C        -4.4123932517       -1.7243832886       -1.0160856515
 C        -5.2687451667       -1.5692824023       -2.3565549128
 C        -5.7601898313       -2.8824381009       -2.9642508584
 C        -4.8819242964       -4.0512769847       -2.6265638776
 C        -3.7975190747       -4.6260119317       -3.5566543168
 O        -5.4059385874       -0.5490889527       -2.9654027783
 O        -5.1210680906       -4.6670908042       -1.6304291430
 C        -7.1503363957       -3.0707502843       -2.4097374455
 C        -5.8879155304       -2.6362663124       -4.5116937798
 C        -2.8839217538       -5.6771549384       -2.7453863860
 C        -1.9848268868       -4.9695406101       -1.7889589205
 C        -1.1546817648       -5.6724111603       -0.6215779165
 C         0.3417799497       -5.2506976008       -0.9109449793
 C         1.4759155351       -6.2254960776       -1.2864744821
 C        -1.5589572974       -5.0647156662        0.6913365501
 C        -1.2186863181       -7.1848538360       -0.6089447151
 O        -1.9687923810       -3.7588543990       -1.8056987633
 O         0.6119612962       -4.0535750822       -0.9620354685
 C         2.7879715123       -5.5404456110       -1.8449156159
 C         2.6252159103       -5.0035693939       -3.2783820934
 C         3.7581207389       -4.0324022938       -3.9637108147
 C         2.8269064813       -2.6829189626       -4.1633625554
 C         1.8228504789       -2.7895152694       -5.3080742033
 O         1.6303743053       -5.2567038951       -3.8763758323
 O         2.9726121527       -1.7444983688       -3.3986455246
 C         5.0375308706       -3.7851821660       -3.1021025474
 C         4.1482703939       -4.7001523703       -5.2797776032
 C         0.7910660776       -1.6608901276       -5.3966299105
 C         0.4305143924       -1.1389556514       -3.9840209604
 C         0.2935510777        0.3933106599       -3.7393510126
 C        -0.1857743038        0.6089009765       -2.3297017530
 C         0.9378114277        1.0969858508       -1.4375228369
 C         1.5793444996        1.1341102729       -4.1266651433
 C        -0.9412282886        0.9027313702       -4.6650878440
 O         0.1499837261       -1.9163016357       -3.0561713838
 O        -1.3583818773        0.4837427608       -2.0061908813
 C         0.4968091560        1.1216059610        0.0681277158
 C         1.0657610863       -0.1629478484        0.8450853203
 C         2.0401933214       -0.0363920781        2.2246164224
 C         3.2444681988        0.9940318802        1.8422561144
 C         4.3664953474        1.1579164275        2.8040847981
 O         0.8230875340       -1.2972145004        0.4602831685
 O         3.0918275790        1.7051516749        0.9082145746
 C         1.2227083181        0.6114841890        3.4115070134
 C         2.6150072660       -1.4319050343        2.5922380333
 H         4.7890042206        3.7324331402        5.9503465435
 H         4.8761269913        4.1759576246        7.6785332549
 H         3.5702350794        2.9834056574        7.0804241257
 H         2.8795272403        4.8443525169        1.8967468678
 H         1.5646497959        3.6832900722        2.3676809066
 H         1.8691997892        7.3548334542        4.0931912089
 H         1.9529915839        7.2162007062        6.0135876611
 H         0.9785428899        6.1839418010        4.9293813218
 H         5.1879452450        5.4775973447        4.3990360000
 H         4.2914668284        6.8958237073        3.8616332499
 H         4.6646152448        6.8360765795        5.5213876128
 H         1.2540616428        6.6853442324        2.4967166976
 H         0.9745219106        5.6849405804        0.9781771945
 H        -3.3302514091        4.8753256370        0.0934104838
 H        -1.8834294776        4.4323566243        0.7658568643
 H        -1.5901085524        5.8194698266        5.0614643202
 H        -3.0154958146        5.1663327958        4.1596790741
 H        -2.8308529851        6.9540943976        4.4774751189
 H        -0.9325509352        8.3206688160        2.0387532126
 H        -1.7386610961        8.5541050655        3.5309737694
 H        -0.0502869926        7.9384423763        3.5033204408
 H        -4.3301749366        4.1286988311        2.4758114294
 H        -2.7283327894        3.6134302516        2.7294146707
 H        -5.5172321634       -0.4755868122        0.1809497871
 H        -4.6227282228        0.3877921731       -1.0280327706
 H        -2.3784060610        1.6615361867        3.5144081457
 H        -1.3921715315        1.3913187519        2.0627773080
 H        -2.0873364916        0.0653756107        2.9706683603
 H        -4.8470160246       -0.3795407580        2.7106888942
 H        -4.8325319487        1.1831608769        3.5699550876
 H        -5.7026500869        1.0102639591        1.9704149018
 H        -3.3601211450       -1.9001758557       -1.3305036011
 H        -4.6778025330       -2.6384681651       -0.5192841107
 H        -4.2353385234       -5.0519045997       -4.3910412221
 H        -3.2977845656       -3.6840942420       -3.8789779477
 H        -7.2119633985       -3.0280797960       -1.3648334161
 H        -7.5893799142       -3.9930554377       -2.7453827718
 H        -7.6902218771       -2.3528912521       -2.8587422649
 H        -6.4071908720       -1.7041781485       -4.7473061553
 H        -4.8669930795       -2.6570298755       -4.9675145922
 H        -6.4357189965       -3.4090456200       -4.9840845909
 H        -2.3086280210       -6.3005835521       -3.4167280293
 H        -3.5751466460       -6.4185373466       -2.2787006639
 H         1.7242516478       -6.7530554005       -0.3978337821
 H         1.1516688346       -6.8054701721       -2.0690566157
 H        -2.5046799278       -5.4947913603        0.8365307990
 H        -1.6894526614       -3.9860857009        0.6989189610
 H        -0.8901279962       -5.2776837392        1.5584187836
 H        -0.6404355329       -7.5687788192        0.3123986335
 H        -2.1638592636       -7.6588766285       -0.6020325500
 H        -0.7308511229       -7.6484735470       -1.4510257328
 H         2.9909316071       -4.7108219861       -1.2057563294
 H         3.5872009439       -6.3461868523       -1.7906738034
 H         2.2305734545       -2.9592036481       -6.2363426400
 H         1.2615833613       -3.7336698490       -5.2221166029
 H         5.4661152818       -2.8596712395       -3.2705422125
 H         5.7267015330       -4.6377254798       -3.1139892849
 H         4.7206720412       -3.7327680799       -2.0318252949
 H         5.0798788983       -5.2083910758       -5.2040796338
 H         3.3076336565       -5.3760746913       -5.6348290757
 H         4.2307330045       -3.8814824500       -6.0403682852
 H        -0.1340512678       -1.8481844151       -5.9062940706
 H         1.0913414547       -0.8490901531       -6.0355192750
 H         1.8239505235        0.4894380462       -1.3397853055
 H         1.1938469468        2.1129390879       -1.7902349235
 H         1.6875310665        1.1579106680       -5.1721318257
 H         2.5329738330        0.8622780344       -3.6088080736
 H         1.3769464973        2.2148342870       -3.9124699893
 H        -0.5794407373        0.8126729737       -5.7320550905
 H        -1.9184211366        0.3617377255       -4.7736404914
 H        -1.1678908451        1.9982839159       -4.6274441656
 H         0.9391541692        1.9461560061        0.6748359403
 H        -0.5254395401        1.1022596055        0.1175980426
 H         3.9370140504        1.4080591166        3.7723887141
 H         4.7926261653        0.1813193331        2.9406392628
 H         5.0796074336        1.9076189083        2.3995190018
 H         1.7474692127        1.4811065231        3.7996486974
 H         1.0261722150       -0.0548623863        4.2545925979
 H         0.2130363618        0.9920971636        3.1506380003
 H         1.7808002602       -2.0075032122        2.9882257396
 H         3.1098983593       -1.9875868311        1.7985128504
 H         3.2295762129       -1.2041255138        3.4664931952
 Na       -0.8802158633       -1.9761512327       -0.6859939728
