155

 C         4.1568155583        3.9566864709        6.9049752511
 C         3.1081397236        5.0304693251        6.6181671592
 C         2.8450699461        5.5831664363        5.1356278674
 C         2.4528264683        4.3001462754        4.1909567723
 C         1.9949399408        4.4986305708        2.7582531592
 C         1.7976191630        6.6879750895        5.2406780396
 C         4.1777098577        6.0779510839        4.5573161069
 O         2.6066219358        5.5894007424        7.5647491668
 O         2.4597695671        3.1894603859        4.6439111157
 C         0.9770864475        5.6682916925        2.5082165859
 C        -0.5512520640        5.2940049262        2.8096887485
 C        -1.5997552838        6.3835426960        2.9423827136
 C        -2.6249663057        6.1448976283        1.6533467201
 C        -2.9465602908        4.7990167440        0.9178985527
 O        -0.8690914705        4.1452515512        2.9163956583
 O        -3.0760721589        7.2382560456        1.2473734415
 C        -2.5740211130        6.2488125303        4.1843600869
 C        -1.0598931546        7.7667454990        2.8462826197
 C        -3.3860044793        3.5801100915        1.8423758170
 C        -3.7066024206        2.3424980094        0.9723014488
 C        -3.5848676367        0.9799142860        1.7327473013
 C        -3.3691428651       -0.2144974020        0.7257905087
 C        -4.1957950403       -0.2173539789       -0.5204876261
 C        -2.4750101092        0.9670353617        2.8448035193
 C        -5.0197021631        0.8116240721        2.4301581743
 O        -4.2033522125        2.4746585770       -0.1170120762
 O        -2.4083681139       -0.9532970319        0.8400087726
 C        -4.4850649606       -1.6170637737       -1.0649454604
 C        -5.1958829031       -1.5449149781       -2.3880840109
 C        -5.8497278014       -2.9548442900       -3.0362426492
 C        -5.0084650326       -4.1889709075       -2.5172295761
 C        -3.9149296743       -4.7073794165       -3.4930256933
 O        -5.2862347894       -0.5126444105       -3.0160962269
 O        -4.8864377299       -4.5572383943       -1.3477566039
 C        -7.1624580843       -2.9517773961       -2.2582750900
 C        -6.1136373521       -2.9038505149       -4.5439512112
 C        -2.8541677625       -5.6124998815       -2.8820091654
 C        -1.7639971124       -4.8632107635       -2.0730790516
 C        -0.9207536479       -5.4517451563       -0.9541226462
 C         0.5664056118       -5.0652414794       -1.0512310161
 C         1.5806290916       -6.1474782378       -1.2358193235
 C        -1.4017899945       -5.0023961954        0.4629069930
 C        -1.1490783537       -6.9176298143       -0.9269131174
 O        -1.7025908998       -3.6427350139       -2.2160460651
 O         0.9310790546       -3.9450062071       -0.7403598171
 C         2.8755997750       -5.5435377753       -1.8071537788
 C         2.7500472075       -5.2708881847       -3.3128045844
 C         3.6857317297       -4.1709360552       -3.9139844818
 C         2.8513300625       -2.8824246924       -4.2405244452
 C         1.7843858084       -2.9209414326       -5.2751495584
 O         1.6837063291       -5.6033639367       -3.8576635456
 O         3.0568785755       -1.8461360855       -3.6101857961
 C         4.7801443159       -3.7655028900       -2.9294782788
 C         4.3006637297       -4.7402429565       -5.3154321025
 C         0.9409611083       -1.6502891717       -5.1849397679
 C         0.4663842187       -1.1132063389       -3.7902492054
 C         0.3305362130        0.5163249620       -3.7888461482
 C        -0.1087029127        0.8414479213       -2.2318621569
 C         0.9406220294        1.2822743154       -1.2419456802
 C         1.6336714696        1.1156010520       -4.2086893238
 C        -0.7551804434        0.7967503833       -4.8634934991
 O         0.0461945424       -1.8860538522       -2.9836129921
 O        -1.2667246431        0.6362581429       -1.8665262610
 C         0.3948119320        1.2540762049        0.2357892527
 C         0.9899977219       -0.0322322257        0.9920525706
 C         1.9706158471        0.1872298507        2.2242272442
 C         3.1843643464        1.0825192701        1.8316390483
 C         4.3580132780        1.1990913511        2.8904374389
 O         0.7661948998       -1.1656827179        0.6111919082
 O         3.2125399654        1.8043309151        0.8035519516
 C         1.1716324113        0.8293566230        3.3872862378
 C         2.4190941437       -1.2986993862        2.4762839611
 H         5.1638579255        4.3613652329        6.7490675616
 H         4.0996220826        3.7462375174        7.8950243879
 H         4.0803115152        3.0455887031        6.2755936456
 H         2.9237547793        4.8526987617        2.2761592636
 H         1.5976448516        3.5974708796        2.2787377438
 H         2.0094422344        7.3455381236        4.4987692928
 H         1.8223299775        6.9965404077        6.2983926474
 H         0.7654891266        6.3812840037        4.9880999984
 H         4.7372403504        5.2059299732        4.2849402823
 H         4.0499966239        6.5150577000        3.5571977622
 H         4.6843193529        6.7898442960        5.1791634096
 H         1.2719855218        6.5867111637        2.9642037912
 H         0.9820845712        5.8046831276        1.4894287530
 H        -3.5559882860        4.8775556104       -0.0156782909
 H        -2.0018014950        4.4939267714        0.4709156610
 H        -1.9781667495        6.3930063787        5.0475436197
 H        -2.9523278008        5.2393853890        4.2482842530
 H        -3.4602918366        6.8929383903        4.0584742766
 H        -0.2088915824        8.0471370043        2.2449580992
 H        -1.8092351152        8.4060427157        2.5501899102
 H        -0.8481490193        8.0437109419        3.8646881576
 H        -4.3001727443        3.8095649114        2.4520357826
 H        -2.5348558965        3.4975296944        2.5754279189
 H        -5.2186253029        0.2736883118       -0.4853736534
 H        -3.6342196206        0.3424501327       -1.2795382877
 H        -2.7626000171        1.4161196114        3.8792133241
 H        -1.5342181762        1.3874013200        2.5181398976
 H        -2.2362669465       -0.1000589387        2.9883490777
 H        -5.4937974839        0.0599482027        1.7834310669
 H        -4.9044862193        0.3928217344        3.3924157321
 H        -5.6955123785        1.6425330005        2.3889429504
 H        -3.4750256709       -1.9758047355       -1.3388607108
 H        -4.9314791141       -2.4483639656       -0.4268690595
 H        -4.4794309811       -5.2246091767       -4.3452670733
 H        -3.4394160293       -3.8087759384       -3.9207076816
 H        -6.9062726955       -3.1267701245       -1.1833439852
 H        -7.8003762124       -3.9215551212       -2.5406274359
 H        -7.8745243331       -2.0692949926       -2.4540870995
 H        -6.8935778682       -2.1822974517       -4.7413699104
 H        -5.2906499413       -2.7722339061       -5.1527330307
 H        -6.5835584607       -3.9023722553       -4.8397747513
 H        -2.4503504175       -6.1747055979       -3.7675385436
 H        -3.3517186538       -6.3812580933       -2.3232841287
 H         1.8089816032       -6.4600015289       -0.1983749486
 H         1.2165303191       -6.9738363884       -1.9215070856
 H        -2.4999367164       -4.8272765718        0.6249187364
 H        -0.9599794474       -4.0491094871        0.7028439558
 H        -0.8354582498       -5.7157652186        1.0282074531
 H        -0.5404107185       -7.4375926265       -0.2579450231
 H        -2.1682606458       -7.0621151458       -0.3906909547
 H        -1.0894763626       -7.5221931818       -1.8824208906
 H         3.0649897727       -4.6401664186       -1.1525909901
 H         3.6539776581       -6.2514194186       -1.6665504428
 H         2.1794323718       -3.0398542584       -6.3489761879
 H         1.1125338774       -3.7551235426       -5.3024851037
 H         5.6351603929       -3.2895154667       -3.4852780256
 H         5.0566365897       -4.5511674626       -2.2562147989
 H         4.4403152817       -2.9552994800       -2.3140483495
 H         4.7550075454       -5.7088931924       -4.9988926973
 H         3.4683641777       -4.9909038455       -5.9061266919
 H         4.9681624461       -4.0931012343       -5.8887322476
 H        -0.0595292274       -1.7845877781       -5.6555868358
 H         1.3422797364       -0.8508338006       -5.8582650341
 H         1.7454192813        0.5666319847       -1.1759777086
 H         1.3466141285        2.2278663612       -1.4988161248
 H         1.7663219371        0.9540394839       -5.3165908718
 H         2.3880979352        0.5045813034       -3.7886714809
 H         1.8601656127        2.1261916462       -4.0005823657
 H        -0.6741715736        0.3473678808       -5.8050903207
 H        -1.6965677698        0.4860327044       -4.5403578099
 H        -0.9142859903        1.8244484365       -5.0023721639
 H         0.5564331344        2.1378218480        0.8167200478
 H        -0.7124126899        1.0498860161       -0.0713646460
 H         4.2256450923        2.1579599494        3.4146924313
 H         4.2072101654        0.4510923824        3.6837625452
 H         5.3114811624        1.2069807750        2.3877253108
 H         1.4924536593        1.7862929722        3.8590687106
 H         1.1638864172        0.0680358027        4.2235182886
 H         0.1070295161        0.8920740138        3.1477977858
 H         1.4940724706       -1.8599451381        2.4832571767
 H         2.8988583465       -1.5919782575        1.5091735924
 H         2.9883554820       -1.4911968510        3.3966158363
 Na       -0.8345397749       -1.9705143013       -0.8234597681
