155

 C         4.2544950076        4.0315502144        6.8718347328
 C         3.1737529601        5.0397903268        6.7106596260
 C         2.7900915895        5.5360736840        5.2778812559
 C         2.2484331801        4.3683427839        4.4633640967
 C         1.8546266806        4.5890685865        2.9842698610
 C         1.7411546238        6.7867360109        5.4880424441
 C         4.0506915361        6.0535631961        4.5554735418
 O         2.7177198673        5.5353065662        7.7058973669
 O         2.3139867293        3.2181788326        4.8737924371
 C         0.8272724159        5.5747662383        2.4951109144
 C        -0.5831604102        5.2375681293        2.8826034380
 C        -1.6585687547        6.3275437342        2.8462766322
 C        -2.7092158313        6.1165732939        1.4816102592
 C        -2.8739078822        4.6700823847        0.9214177254
 O        -0.7497522995        4.0307670799        3.1486980472
 O        -3.2314166707        7.1016012073        1.0820169205
 C        -2.5183313172        6.1485207729        4.0601083911
 C        -1.1476969834        7.7797943553        2.7574136948
 C        -3.6068867570        3.6368346623        1.7704446220
 C        -3.7918908521        2.3571146943        1.0139257767
 C        -3.7513871867        0.9414156025        1.6832101357
 C        -3.3169531367       -0.2188117260        0.6284638439
 C        -3.9739089248       -0.1774717130       -0.7276276152
 C        -2.8448809462        0.8680016829        2.8895299023
 C        -5.2249623792        0.6490478414        2.2360151761
 O        -3.9691838152        2.3876421730       -0.2060655380
 O        -2.4401030969       -1.0348341595        0.9349157548
 C        -4.4489559964       -1.5875798765       -1.2137437753
 C        -5.2085645621       -1.6422726973       -2.5359052297
 C        -5.8989585626       -2.9755306895       -2.8770028308
 C        -4.9539943408       -4.2098897777       -2.4316807089
 C        -4.0156395366       -4.7740873779       -3.4812525610
 O        -5.1945526300       -0.7234035239       -3.3503196490
 O        -4.7540894525       -4.4905855845       -1.2556853593
 C        -7.1444300294       -3.1342419825       -1.9699920040
 C        -6.1505231552       -3.0344255486       -4.4016046245
 C        -2.7719633755       -5.4838971810       -2.8724349419
 C        -1.7713270663       -4.6460022340       -2.1673405289
 C        -0.9364300697       -5.3867534767       -1.0396809613
 C         0.5245587295       -5.0179559449       -0.9997135692
 C         1.6315840802       -6.0878049756       -1.1277513297
 C        -1.6532033746       -4.8832411482        0.3141989787
 C        -1.0801370539       -6.8684550076       -1.1973072946
 O        -1.7771321915       -3.4731446293       -2.3483250536
 O         0.8641424323       -3.8796344805       -0.9029904133
 C         2.9589469197       -5.6524562913       -1.8185339155
 C         2.7980053575       -5.2357138178       -3.2272388913
 C         3.6916487141       -4.1520938331       -3.8913750784
 C         2.8454631868       -2.9011456798       -4.1916088051
 C         1.5953123189       -3.0525316438       -5.0279540757
 O         2.0507848424       -5.8413078455       -3.9711507091
 O         3.1588111582       -1.8235305659       -3.7563919787
 C         4.9265355765       -3.8167253604       -3.0334594754
 C         4.2685355978       -4.8942817379       -5.1355050229
 C         0.9191182351       -1.7004785057       -5.3335834137
 C         0.5742982624       -1.0747291869       -4.0007976521
 C         0.3510612472        0.4655559785       -3.7223269968
 C         0.0100946242        0.7216681931       -2.2422615286
 C         0.9709023813        1.4329055143       -1.2556643211
 C         1.7591902342        1.2235949162       -4.0194990037
 C        -0.7956910911        1.1298125745       -4.5043806992
 O         0.3645928600       -1.8733427710       -3.1018620073
 O        -1.1643619714        0.5422455971       -1.9795143401
 C         0.4512917295        1.3580098908        0.2960025098
 C         0.9839156492        0.0951592856        0.9389259753
 C         2.0172107207        0.1928732385        2.1678835651
 C         3.2329222391        1.1712447452        1.8394143130
 C         4.2590539467        1.2932336569        2.9136604763
 O         0.5855496848       -1.0063712846        0.6136255172
 O         3.2277611207        1.7461137026        0.7805745373
 C         1.0457524242        0.7271945397        3.3503099723
 C         2.5569333905       -1.1481155991        2.6560753565
 H         4.9982943115        4.4633548524        7.5225373590
 H         3.8264386962        3.1702786410        7.4914477914
 H         4.8040226788        3.7634490409        6.0004225094
 H         2.8044346938        4.8065099595        2.4518202748
 H         1.4173782386        3.6362769877        2.6524001445
 H         1.6767357363        7.3303536265        4.4958651685
 H         2.0504045890        7.2701302346        6.4066697768
 H         0.7142130800        6.4769112919        5.7847937804
 H         4.7993640592        5.2747649766        4.4282877836
 H         3.8341015319        6.2674128926        3.5160574159
 H         4.4161175165        6.9307649294        5.1086244996
 H         1.0553204709        6.5880480439        2.9143075514
 H         0.8499245119        5.6937101850        1.3569515285
 H        -3.4386325453        4.7404273364        0.0047163023
 H        -1.8884788720        4.2936532350        0.5129177462
 H        -1.8907788984        6.5756684248        4.8942163752
 H        -2.7705829677        5.1345812751        4.4479057744
 H        -3.4743039756        6.5969014518        3.8058997244
 H        -0.4190084225        7.8095493449        1.9555039386
 H        -1.9622896398        8.5033541611        2.4438675670
 H        -0.6556921042        8.1954825393        3.6443726272
 H        -4.5429686943        4.0654784729        2.1338215795
 H        -2.9593994856        3.5320619878        2.6158875449
 H        -4.7984536674        0.4390772475       -0.8723003189
 H        -3.1888678138        0.2355173689       -1.3604710751
 H        -3.1435833708        1.4592255991        3.6970675168
 H        -1.8287929324        1.1953149538        2.6280652504
 H        -2.7403371389       -0.1671048336        3.2333869487
 H        -6.0209330248        1.0291665419        1.5753458188
 H        -5.2166013075       -0.4512321343        2.5266297080
 H        -5.3636552435        1.2330041030        3.1536240425
 H        -3.5184362454       -2.1608628244       -1.2908991485
 H        -5.0898351525       -2.0508534537       -0.5107503473
 H        -4.6346379432       -5.4461173282       -4.0772849609
 H        -3.6081274781       -4.0053254260       -4.1750099478
 H        -6.8958394725       -3.4562257677       -0.9650021825
 H        -7.7101496709       -3.8408164137       -2.3186984086
 H        -7.7026006644       -2.2304495828       -1.9439200527
 H        -6.8140376975       -2.2420968701       -4.7663858492
 H        -5.1380292718       -2.8674032307       -4.9535936821
 H        -6.5381376347       -3.9564699697       -4.7057893058
 H        -2.3723429470       -6.0475863334       -3.6696077878
 H        -3.1008952774       -6.2438707906       -2.1191725790
 H         1.9011497235       -6.4929089269       -0.1214376551
 H         1.2258521322       -6.8486596124       -1.7794093883
 H        -2.7105046071       -5.0657794475        0.1011443807
 H        -1.6926835753       -3.7579547238        0.4355161081
 H        -1.2369018782       -5.4375014630        1.1850302099
 H        -0.5304469172       -7.4623326630       -0.4207186048
 H        -1.9970962105       -7.3108579227       -1.0736894378
 H        -0.5976590105       -7.0892316243       -2.0852898028
 H         3.3392751567       -4.8380774025       -1.2491245482
 H         3.7393498587       -6.4835925272       -1.6881137512
 H         1.7492668481       -3.5704422950       -5.9337657093
 H         0.8074833630       -3.7124077631       -4.5724182059
 H         5.7350407903       -3.3214490369       -3.5390186860
 H         5.2882946253       -4.8132147940       -2.7266874566
 H         4.6994723641       -3.2554967303       -2.1008524360
 H         4.5541706386       -5.8845571026       -4.8662925001
 H         3.5878738230       -4.9380599758       -6.0019093665
 H         5.0751151135       -4.2879684195       -5.4144765915
 H        -0.0344123244       -1.7429705183       -5.9045678073
 H         1.6206764026       -1.0627331807       -5.8805487402
 H         2.0626692956        1.2063974433       -1.2713362954
 H         0.9268734590        2.5622376686       -1.2730807287
 H         2.1539935659        1.2009538500       -5.0006111769
 H         2.6090954997        0.7816345907       -3.4270341051
 H         1.6726762339        2.2664280226       -3.6295610357
 H        -0.7765668832        0.8266579047       -5.5716129339
 H        -1.8243024119        0.7855480943       -4.2435943472
 H        -0.9274976413        2.2140834807       -4.3436492763
 H         0.9631442184        2.2811564193        0.7116615716
 H        -0.6005690621        1.4370555210        0.1354876898
 H         4.5270907500        2.3259643172        3.0125342504
 H         3.8320722692        0.9682617582        3.8609064649
 H         5.1671793647        0.7750341916        2.5837984246
 H         1.1844115771        1.7927201250        3.4585616491
 H         1.0535999172        0.3511738893        4.3172771010
 H         0.0394969872        0.7094416394        2.9790251258
 H         1.7476571176       -1.8866162358        2.7306282653
 H         3.2512474732       -1.4613306262        1.9553057741
 H         2.9878825107       -0.9971266718        3.6151906196
 Na       -0.7904760290       -1.8299923929       -0.9703073892
