155

 C         4.3590785116        4.0573374119        6.8540227533
 C         3.2503670607        5.0625032063        6.8088658768
 C         2.8398325935        5.6242589228        5.4185492437
 C         2.2849961873        4.4553834644        4.5833908834
 C         1.9571567364        4.4718057504        3.0266082333
 C         1.7418422244        6.6631869441        5.6836409962
 C         4.0770721152        6.3965052449        4.7320505824
 O         2.7709231966        5.4586933418        7.8768290302
 O         1.9276661332        3.4148782445        5.1274924281
 C         0.7935486059        5.5173986768        2.4834111710
 C        -0.5747799358        5.1768727499        2.9240744911
 C        -1.7434177909        6.3332777778        2.7622566439
 C        -2.7331889548        5.9823731303        1.5140021631
 C        -2.7611533952        4.5563785183        0.9683110912
 O        -0.8447303340        4.1104260468        3.3624394074
 O        -3.3681916624        6.8080173722        0.9464811402
 C        -2.6872032520        6.0798923724        4.0578151978
 C        -1.2815213315        7.7741140026        2.5935240522
 C        -3.6681642940        3.5834632005        1.8796444129
 C        -3.8335038173        2.3320836265        0.9529727475
 C        -3.9625375950        0.9486684632        1.5606707599
 C        -3.3273641971       -0.0580401506        0.4440037449
 C        -4.1242377417       -0.1579790602       -0.8503388362
 C        -3.1471509002        0.7840249360        2.7651216906
 C        -5.3951360661        0.4510546002        1.6762677442
 O        -3.7048607440        2.4483401335       -0.2487566659
 O        -2.4060213261       -0.8124546563        0.6779557345
 C        -4.3633795003       -1.6303326564       -1.1881894124
 C        -5.0021112012       -1.8073826629       -2.5436203575
 C        -5.8979301263       -3.0234700078       -2.7599380043
 C        -4.8792770226       -4.1860643795       -2.5018783785
 C        -3.9741896956       -4.6919032394       -3.6774147412
 O        -4.9950737825       -1.0022580759       -3.4111564525
 O        -4.6463320258       -4.5662083663       -1.3918200433
 C        -7.1123099007       -3.2427573112       -1.8731813286
 C        -6.4765924241       -3.1911195467       -4.1681805495
 C        -2.7960933651       -5.5853466712       -3.0952605000
 C        -1.9084045699       -4.8086021316       -2.1717087390
 C        -1.0730138191       -5.4772828795       -1.0209581591
 C         0.3795790672       -4.8640255581       -1.0649154600
 C         1.5221808722       -5.8992903008       -1.2040907184
 C        -1.7197619058       -4.9757259889        0.2836850447
 C        -1.1707649976       -7.0064149142       -1.0536546792
 O        -2.0628590141       -3.5856433868       -2.3519044015
 O         0.6089696717       -3.6314506576       -1.0978508836
 C         2.8997531723       -5.3362924933       -1.6107434582
 C         2.9507057115       -5.3075455952       -3.1777138206
 C         3.8488920664       -4.2437752454       -3.9436121257
 C         2.9413473037       -2.9954814958       -4.2853348842
 C         1.6713017825       -3.0137956454       -5.0390659010
 O         2.1366469108       -5.9860201897       -3.7689397838
 O         3.4129787807       -1.9318082347       -3.9148041451
 C         5.0463482210       -3.7717419141       -3.0992162946
 C         4.2496860857       -4.7348923237       -5.3112426158
 C         1.0738089041       -1.5535471347       -5.2104800401
 C         0.6320556503       -0.9329484954       -3.8761339713
 C         0.4971171938        0.6036704309       -3.6855997547
 C         0.1165157204        0.7341207719       -2.1507031122
 C         0.9587509430        1.5234845514       -1.2679719862
 C         1.8333548369        1.2052709774       -4.0491442938
 C        -0.5409311830        1.2724777551       -4.6730285402
 O         0.5213267440       -1.7019586797       -2.9431649764
 O        -0.9351831667        0.2324293684       -1.7156798227
 C         0.5765583752        1.3434406596        0.2567432121
 C         1.0123375877        0.1047766279        0.9794581034
 C         1.8870068291        0.3090363065        2.1912332468
 C         3.1337280803        1.2246403549        1.9123241479
 C         4.2055809719        1.5317524167        3.0789276668
 O         0.7206009933       -1.0393820019        0.6157916090
 O         3.2710580167        1.7097148661        0.8155970553
 C         1.1244362890        0.7905267143        3.3668561638
 C         2.5507291647       -1.1658416196        2.5282019662
 H         4.7952567300        3.8825576563        7.8586892582
 H         3.9705909754        3.1101810448        6.5526244621
 H         5.2251311303        4.4827019376        6.2548882473
 H         2.8234189151        4.6873287278        2.4081896813
 H         1.5889438705        3.4491659971        2.8137355903
 H         1.4167369555        7.1215938884        4.7726610107
 H         2.0582147755        7.3788062238        6.4609106437
 H         1.0018393676        6.1776959867        6.2170184204
 H         4.7628070030        5.6901856132        4.2217789936
 H         3.7130575449        7.0623173468        3.9361607782
 H         4.6119270183        6.9215476451        5.5158884543
 H         1.0826216517        6.5215936891        2.8187341749
 H         0.7597461276        5.6323505836        1.3936146915
 H        -3.2499632299        4.4898575484       -0.0243915864
 H        -1.7893055648        4.1871158732        0.8240750137
 H        -2.2575525220        5.9609422282        4.9961313191
 H        -3.0619357734        5.1198602804        3.8434486957
 H        -3.6210691456        6.6097229416        3.9421145853
 H        -1.2180406184        8.0389336178        1.5179164681
 H        -2.0156480368        8.4302940920        3.0461151768
 H        -0.3130378530        8.0620844551        3.0293727117
 H        -4.6570924528        4.0465820105        1.9426506047
 H        -3.2364022462        3.5495921312        2.8845348654
 H        -5.1852356576        0.2596036657       -0.7418139271
 H        -3.7454900857        0.4411057363       -1.7016356174
 H        -3.5102740489        1.4707163656        3.5815291013
 H        -2.0739517890        0.9566908662        2.6786989114
 H        -3.2776123698       -0.1982030858        3.1463637048
 H        -6.0634649378        1.2357976392        1.3821519682
 H        -5.5137850111       -0.4941176218        1.2496585846
 H        -5.5585761062        0.3642221715        2.7739236296
 H        -3.3729871484       -2.0968075834       -1.1756502534
 H        -5.0381520896       -2.0889218433       -0.4097842954
 H        -4.5414857763       -5.3285789350       -4.3640801938
 H        -3.6358422972       -3.8157942355       -4.2604684936
 H        -6.8722250425       -3.3391778799       -0.7989005268
 H        -7.6513169747       -4.2852264086       -2.0282347964
 H        -7.7637142463       -2.3822053255       -1.9946002486
 H        -7.2555913641       -2.4581605503       -4.3314769583
 H        -5.8283446625       -3.0261151722       -4.9309600206
 H        -6.9365738542       -4.2269251927       -4.2536500416
 H        -2.2231672958       -5.9891664435       -4.0107380664
 H        -3.2304186573       -6.4584173667       -2.6408662935
 H         1.6117514900       -6.2129513282       -0.1942862722
 H         1.2753087502       -6.7817585657       -1.7781429728
 H        -2.7549060855       -5.1815276902        0.3403250323
 H        -1.6738764827       -3.9371057029        0.2007993431
 H        -1.1542366036       -5.4310704813        1.0715810564
 H        -0.5400457606       -7.5486607171       -0.3978245894
 H        -2.2025539340       -7.2765407359       -0.7139702510
 H        -0.8971659425       -7.4162245720       -2.0614408268
 H         3.2466485885       -4.4256832217       -1.0361498354
 H         3.5907173808       -6.0590700743       -1.2532888610
 H         1.7255840750       -3.4107486522       -6.0913230642
 H         0.9442647692       -3.6458928570       -4.5830209150
 H         5.1396408829       -2.7248953741       -3.4185793566
 H         6.0006955880       -4.1608861396       -3.4501757322
 H         4.9323475009       -3.8486250588       -2.0130020625
 H         5.1830664365       -5.3006866546       -5.1456727906
 H         3.5048348746       -5.4247047168       -5.6907350084
 H         4.3697437703       -3.8939732969       -6.0931051401
 H         0.1886650159       -1.6581618379       -5.8351310612
 H         1.8785358457       -0.9281666270       -5.6639382108
 H         1.9958136237        1.3213785132       -1.2947710240
 H         0.8952132221        2.5496892148       -1.4679569113
 H         1.9746572811        1.0780975898       -5.1671977233
 H         2.7596507333        0.8337140739       -3.6936006254
 H         1.7776055380        2.2553982531       -3.8473962860
 H        -0.2980079111        1.4134659661       -5.7134113182
 H        -1.5049277228        0.7597495111       -4.7612241225
 H        -0.9244612037        2.1674597930       -4.1819733134
 H         0.8479986579        2.2669262605        0.6980809994
 H        -0.4893291437        1.1821491246        0.1941621211
 H         5.0536232737        2.1263411124        2.6263103697
 H         3.7407069836        2.1191578786        3.8653255397
 H         4.6204619104        0.6007345730        3.4647717085
 H         0.5630521521        1.7259928947        3.3336199780
 H         1.8857148708        0.9889229768        4.1914905292
 H         0.3594920484        0.0805504689        3.7388586898
 H         1.7365607932       -1.8205653985        2.6967676787
 H         3.1644076886       -1.4786687481        1.6164145211
 H         3.1834084542       -1.1090387604        3.4402691397
 Na       -0.8005656764       -1.7595906343       -0.9219882780
