155

 C         4.5614926967        4.3265635506        6.4868719027
 C         3.4864289198        5.1928765862        7.1055551025
 C         2.4749571029        5.8804038653        6.1789969851
 C         2.0332887862        4.8753267894        4.9351153643
 C         1.9049186011        5.5051346343        3.5059500409
 C         1.1749351477        6.1897121376        7.0176826805
 C         3.1539684512        7.2172653611        5.5451584136
 O         3.4900600082        5.4048160646        8.3087185518
 O         1.8819953938        3.7236435903        5.0931308375
 C         0.5769693820        6.2926876394        3.2593570220
 C        -0.7528049273        5.3187144385        3.1668260448
 C        -2.0741387291        6.1480968500        2.9587690995
 C        -3.0022793535        5.7344436577        1.7119991785
 C        -2.5273120961        4.5558413354        0.8269889027
 O        -0.7610053551        4.1483349947        3.3042661375
 O        -3.8514178228        6.4986704944        1.4472949628
 C        -3.0268780294        5.9448933324        4.2281280806
 C        -1.7742929596        7.5763228882        2.7793735613
 C        -2.7770849022        3.1595894398        1.3236904370
 C        -3.6081955039        2.3428317838        0.2171977740
 C        -4.4768508801        0.9737270085        0.5999707372
 C        -3.7271001547        0.0114699970       -0.3055840853
 C        -4.3541759283       -0.6105518630       -1.5491175588
 C        -4.4178355003        0.7604672727        2.1360068189
 C        -5.8980548120        1.2248881083        0.1037309697
 O        -3.6322435933        2.7733157537       -0.9147414236
 O        -2.6280873700       -0.2763810391        0.1273500287
 C        -5.1901929691       -1.9215117358       -1.3101332755
 C        -5.4374758382       -2.6371998297       -2.6642360918
 C        -6.2495728363       -4.0473344808       -2.7487130515
 C        -5.0191366765       -5.0926028109       -2.7758008045
 C        -3.8627072857       -5.0030464237       -3.8065514195
 O        -4.8922942012       -2.2663212830       -3.6620755026
 O        -5.0567976526       -6.0604520118       -2.0557017313
 C        -7.1703369462       -4.3132042764       -1.5686516894
 C        -6.9781983125       -4.1153241554       -4.1423075226
 C        -2.6146858151       -5.6045230870       -3.2647086210
 C        -1.9684341377       -4.7419272728       -2.0936758302
 C        -1.2148486670       -5.4533104557       -0.8707057127
 C         0.2755839202       -4.9038603242       -0.9176910558
 C         1.3919509920       -5.6527324978       -1.5776626037
 C        -1.8923100106       -4.9407562150        0.4604221179
 C        -1.2524009733       -7.0487931448       -0.7835864987
 O        -1.8547762972       -3.5080279502       -2.2521661446
 O         0.3934939524       -3.8686525872       -0.2532333466
 C         2.4316310823       -4.6585807878       -2.1662385174
 C         2.9334141214       -5.0453105370       -3.6051589091
 C         4.1977406200       -4.2694534772       -4.0449362547
 C         3.6300600751       -2.7521996079       -4.2021161797
 C         2.5588658797       -2.5433726774       -5.1666140462
 O         2.3555422706       -5.8252737100       -4.3396433752
 O         4.0291430847       -1.8106260873       -3.5824699775
 C         5.4320572531       -4.2786250771       -3.1202454438
 C         4.4874472804       -4.7373907915       -5.4634211647
 C         1.9892016042       -1.0505106010       -5.0890254244
 C         1.1864771177       -0.6960684234       -3.8639843020
 C         1.2254287687        0.8596514540       -3.5542067238
 C         0.5358995123        0.9569055265       -2.1368391662
 C         1.1821799050        1.7757759956       -0.9713529337
 C         2.6199342176        1.4086698148       -3.5036654380
 C         0.3731182991        1.5433710318       -4.6934459739
 O         0.4757247382       -1.5359937063       -3.3494654624
 O        -0.4772589480        0.3176041679       -2.0100232383
 C         0.5804291987        1.4927882424        0.4080748460
 C         1.0565264255        0.1284659098        1.0701908458
 C         1.9949143189        0.4115605119        2.4172237047
 C         3.1609634058        1.4124427769        2.2536579033
 C         3.9900333596        1.6829367183        3.4519843057
 O         0.8776602158       -0.9743133720        0.6263160840
 O         3.3722241091        1.9741144316        1.2160905481
 C         0.9084677903        0.6740397637        3.4966869291
 C         2.5112926090       -1.0407315455        2.7676705932
 H         4.0856478660        3.5099429069        5.8722844607
 H         5.1846555445        4.9493430596        5.9004202749
 H         5.3314881369        3.9067160178        7.2179803815
 H         2.7116623598        6.2581814841        3.3030650930
 H         2.0129491161        4.8677771899        2.6654973081
 H         0.4782313100        6.7054253237        6.4511936772
 H         1.4840596668        6.7431787685        7.9441718310
 H         0.6835077306        5.2911943925        7.2689691322
 H         4.0045696510        6.8785226759        4.9502310559
 H         2.4622123736        7.8094798571        4.8879864100
 H         3.5137170828        7.8060657451        6.3970270015
 H         0.4020134362        7.0373036886        4.0574285568
 H         0.6801238823        6.7201402127        2.2815767872
 H        -3.0168615866        4.7132335236       -0.0796546778
 H        -1.4221607213        4.7097023544        0.7374931407
 H        -2.6814946575        6.5059980185        5.0789205407
 H        -3.0188674574        4.8796218101        4.4514852074
 H        -4.0696941137        6.2673266247        4.1726026929
 H        -0.7612522931        7.8069270395        2.3294677481
 H        -2.4902722141        8.0195889945        2.1167047276
 H        -1.8649396495        8.0875021484        3.7782752864
 H        -3.3434855472        3.2930935862        2.2481206713
 H        -1.8838125292        2.5428055814        1.4962667389
 H        -4.9276384644        0.1409708367       -2.1622515896
 H        -3.5048191269       -0.9430645848       -2.1859601957
 H        -4.5925938675        1.6789508964        2.7297312418
 H        -3.5203496630        0.4025879493        2.4994378646
 H        -5.1608873466        0.0344711864        2.4807702898
 H        -5.9055406520        1.5317025538       -0.9446676083
 H        -6.4242380356        0.3271454722        0.3324068513
 H        -6.3337905541        1.9650915610        0.7672839571
 H        -4.6325511980       -2.6575401894       -0.6707043334
 H        -6.0529042519       -1.6705205821       -0.6477455750
 H        -3.9980439293       -5.5148237666       -4.8306980126
 H        -3.5752984480       -3.9822474667       -4.0425278191
 H        -6.5616945799       -4.2097289759       -0.5797970478
 H        -7.3487372115       -5.4203734104       -1.5836723171
 H        -8.1812362837       -3.7960561339       -1.5342002792
 H        -7.8269082863       -3.4327571544       -4.1358078203
 H        -6.2997784538       -3.9546917020       -4.8934054663
 H        -7.3817711599       -5.1567535445       -4.3096656507
 H        -1.8616532969       -5.6607019038       -4.0417087292
 H        -2.9106845426       -6.6437404392       -2.9112631686
 H         1.8153594541       -6.3186893320       -0.8234819472
 H         1.0034488616       -6.3628354792       -2.3053855443
 H        -2.9127736557       -5.2858937817        0.5684346423
 H        -1.6773722662       -3.9372225989        0.5109177639
 H        -1.2643154013       -5.3498313746        1.2250342629
 H        -0.7376782845       -7.3887289892        0.0518297436
 H        -2.3468573059       -7.2037582452       -0.5416003898
 H        -1.0364490659       -7.5992698651       -1.7144353914
 H         1.9895885546       -3.6981097105       -2.2572334836
 H         3.3150210130       -4.5645264462       -1.4874567261
 H         3.0038360338       -2.7080666041       -6.1605568461
 H         1.7997911531       -3.3326554315       -5.0005657302
 H         5.9272194189       -3.2694880451       -3.1519585614
 H         5.9972301161       -5.1547607457       -3.3694943850
 H         5.2438971724       -4.4105407381       -2.0919586987
 H         5.2630076656       -5.5594307165       -5.4910910300
 H         3.6594363276       -5.1737589933       -5.9943844601
 H         4.9074306980       -3.9067330840       -6.0411882517
 H         1.2411506785       -1.0527207449       -5.9285173223
 H         2.8000943227       -0.3495333914       -5.2680072045
 H         2.2114142498        1.5361920438       -1.0419690325
 H         1.1029191170        2.8052114544       -1.2609626410
 H         3.0315253925        1.3734640461       -4.5364586283
 H         3.2020407390        0.8953263134       -2.7618679612
 H         2.7240057093        2.4485416265       -3.2135654851
 H         0.5935272524        1.2300574697       -5.7545908711
 H        -0.6991326954        1.3159415604       -4.6470497570
 H         0.5345891129        2.6779689648       -4.7454754474
 H         0.8080151855        2.3144564038        1.0317924610
 H        -0.5515366197        1.5710278662        0.2974032153
 H         3.5266729732        1.5702117043        4.4212396148
 H         4.7824736068        0.9042345863        3.5179633824
 H         4.5251105924        2.6063361616        3.3160384716
 H         1.4285975140        0.8173550079        4.4608208352
 H         0.3338534348       -0.2599724242        3.6064866049
 H         0.2418071634        1.5313385611        3.4147417455
 H         1.7640178092       -1.7691791829        3.0197602208
 H         2.9348113073       -1.3757845014        1.8165854905
 H         3.2826076369       -1.0144552511        3.5122462839
 Na       -0.7717455578       -1.7095707845       -0.8516445808
