155

 C         0.4796588551        2.1644065238       -2.2908439103
 C        -0.0086303927        2.4330006018       -0.9406786896
 C        -0.8612337360        3.6064330307       -0.8224235631
 C        -2.3714603306        3.0844965801       -0.7326395816
 C        -3.3948801749        3.9716690112       -1.3626908468
 C        -0.6819072359        4.3569796517        0.6099091358
 C        -0.6384407903        4.7091190883       -1.8913033513
 O         0.3148143508        1.6688631163       -0.0173983797
 O        -2.5666583235        2.1283045181       -0.0388667124
 C        -4.7253168460        3.4625712132       -0.9702111255
 C        -4.9427870308        3.5579098351        0.5858338980
 C        -6.3442949450        3.2749793685        1.2470243109
 C        -6.0252271218        2.1030146775        2.3526402086
 C        -5.7345092974        2.4640442512        3.8086646778
 O        -4.0466830825        4.0508484511        1.2523155533
 O        -6.1774367809        0.9594957246        2.1000009096
 C        -6.9592189553        4.4571964067        1.9383502219
 C        -7.3056511614        2.5538102000        0.1926385650
 C        -5.0799034229        1.1936467080        4.4280759290
 C        -3.5525570769        1.0479396943        4.1579220688
 C        -2.4557610769        1.5576765060        5.0468127650
 C        -1.1470728844        0.6445952035        4.7165845277
 C        -0.7047799820       -0.2642342201        5.8028129393
 C        -2.2217941284        3.0221969554        4.5614983487
 C        -2.9263404474        1.5424487264        6.5101168450
 O        -3.2605227282        0.6457280077        3.0494531701
 O        -0.4991423266        0.7137114721        3.7111574628
 C         0.6664767082       -0.7412024329        5.7995036906
 C         1.7149548648        0.2874254819        6.1054104806
 C         3.1799879562       -0.1086352779        5.9043815330
 C         3.6822630967       -0.2141154142        4.4158592918
 C         5.1976100979       -0.3544965428        4.0274782567
 O         1.5315482920        1.3728716898        6.6217085577
 O         2.9182736027       -0.0502235202        3.4441261910
 C         4.1304437774        1.0460397471        6.5427104947
 C         3.3911466263       -1.4660385293        6.5481612862
 C         5.4858743014       -0.5486763063        2.5922377755
 C         5.9294342231        0.7681181986        1.7903894525
 C         5.2070714082        1.0893384777        0.4565145089
 C         4.6501868826       -0.0350246200       -0.3927658944
 C         3.2435982429       -0.0198493681       -1.0414740112
 C         3.9888726690        1.9770866860        0.9121945148
 C         6.1166388066        1.8655345641       -0.3756474858
 O         6.6901644050        1.6184929454        2.3563859876
 O         5.2939869954       -1.1044859386       -0.5061984711
 C         2.9673825216       -1.2164385426       -1.9040082620
 C         3.4982301006       -1.1279506654       -3.3971004698
 C         4.0097666884       -2.3007978962       -4.2839440167
 C         2.7887502155       -3.2922074006       -4.6421036016
 C         2.5204873440       -3.5801087174       -6.2078390699
 O         3.4020462156       -0.0618881170       -3.9796657665
 O         2.1773517714       -3.9336904597       -3.7599145263
 C         4.8742908713       -1.8113976242       -5.4477377587
 C         4.9948912625       -3.0417460786       -3.3985713530
 C         1.0769391670       -4.2056262755       -6.3902910437
 C        -0.0833052504       -3.2120356519       -6.5967287230
 C        -1.4071415183       -3.7177492404       -7.1290095377
 C        -2.2002248109       -4.0896003210       -5.7127159682
 C        -2.0426711050       -3.0517898749       -4.5370176016
 C        -2.0218378082       -2.6793546060       -8.1239383006
 C        -1.2185544943       -5.0595419289       -7.8773732639
 O         0.0481607863       -2.0222417330       -6.3700497632
 O        -2.5807991155       -5.2172479825       -5.5118648207
 C        -2.9445534227       -3.5985674269       -3.3186227657
 C        -2.7302124848       -2.6027155956       -2.2173455791
 C        -2.0675639532       -3.0917485070       -0.8404283430
 C        -2.1434527513       -2.0149706025        0.3172663032
 C        -3.4884635218       -1.8511937315        0.8989442484
 O        -2.9332653399       -1.3755456153       -2.3548672511
 O        -1.1596171937       -1.2900625071        0.6100266990
 C        -2.7750797492       -4.3415093259       -0.5181207815
 C        -0.6072501378       -3.4700902058       -1.1679471095
 H         1.4021500189        2.7911134643       -2.4062649316
 H         0.8573398498        1.2070086866       -2.5331590620
 H        -0.3648276213        2.5073168938       -2.9651673817
 H        -3.2007819988        5.0105961056       -1.0574371186
 H        -3.2997329957        3.8788540989       -2.5175705104
 H         0.3268619890        4.6903039856        0.8044219628
 H        -1.0509863185        3.6169529317        1.3678403610
 H        -1.4713283708        5.1328911474        0.7097327670
 H         0.4104371652        4.7213510250       -2.0979814139
 H        -1.3317185580        4.4754603585       -2.7312465709
 H        -0.8502758496        5.7369595191       -1.4489839055
 H        -5.6440661543        3.9364232910       -1.3697498268
 H        -4.7250363692        2.3561766178       -1.1940175577
 H        -5.0874535882        3.2945173271        3.8958926313
 H        -6.7067283909        2.6608160693        4.2906603095
 H        -6.5084000455        4.8133398195        2.7876937652
 H        -7.9483112119        4.2679834871        2.3063750743
 H        -7.0261793851        5.3021468648        1.2676638453
 H        -8.3595009474        2.3676724524        0.5851263035
 H        -7.2385133392        3.2380036567       -0.6973872980
 H        -6.9805107926        1.5146324133        0.0150907830
 H        -5.4194481639        0.2917605398        3.9404942296
 H        -5.2462815713        1.1249339381        5.4856016432
 H        -0.9380229730        0.2744825575        6.7994664131
 H        -1.4657655730       -1.0401826770        5.9387361458
 H        -3.0347202449        3.6090669179        4.8075215765
 H        -2.1833318823        3.0029525141        3.4528737806
 H        -1.2026084339        3.4227715475        4.8446957191
 H        -3.1518056604        0.5889692286        6.9891495142
 H        -2.1393661458        1.9727188955        7.0576526954
 H        -3.7857426848        2.2655505626        6.6399148825
 H         0.7198991143       -1.6448150860        6.4001511213
 H         0.9744126659       -1.0821844273        4.7859915452
 H         5.6722080285        0.5674551530        4.3870450919
 H         5.7056869587       -1.2028030631        4.6306814852
 H         3.8882201298        2.0069062566        6.1244911989
 H         5.1709543007        0.8633339816        6.3820932556
 H         4.0020997839        1.0849913345        7.5935540224
 H         4.3734940632       -1.8367451765        6.6393046998
 H         2.9114787040       -1.5168864620        7.4910886877
 H         2.8514612859       -2.2898275552        5.9857548656
 H         4.7183352016       -1.0742249062        2.0437257641
 H         6.3176013918       -1.2905670367        2.4662018775
 H         2.4006759165        0.0171943627       -0.2330008320
 H         3.0925644380        0.8973521195       -1.6591372490
 H         4.2047887171        2.5149672798        1.8190200421
 H         3.1316145743        1.3367166883        1.3712127816
 H         3.6380939444        2.7675556058        0.1578476509
 H         5.6939323753        2.4334607789       -1.1645697931
 H         6.5266952151        2.3539384954        0.4819304819
 H         6.8857657928        1.1665413678       -0.7652544422
 H         3.3038697858       -2.1250924641       -1.4471963318
 H         1.8788622126       -1.3312989663       -1.9795120031
 H         2.5412790686       -2.6730036764       -6.8955955656
 H         3.3275095545       -4.1461135868       -6.6586580936
 H         5.0818996635       -2.6690902660       -6.0393009868
 H         5.8008355225       -1.4407580065       -4.9842967827
 H         4.3876448805       -1.0197833306       -6.0093001748
 H         4.5068035955       -3.4706459983       -2.5230784548
 H         5.4832920624       -3.8579848325       -3.9132807543
 H         5.6705310223       -2.2590398880       -3.0043016089
 H         0.9508307857       -4.5968554145       -5.4361137490
 H         1.0093905331       -5.0490318258       -7.0681470554
 H        -1.0160498278       -3.1891617825       -4.2644220118
 H        -2.2033325230       -2.1419101849       -4.9616241747
 H        -2.8818203244       -3.0699446318       -8.6221952607
 H        -1.2484424471       -2.4039983299       -8.8469745035
 H        -2.3260642266       -1.7185962536       -7.6135541424
 H        -2.2153471309       -5.5097371939       -8.1979104510
 H        -0.6104688194       -4.7676970388       -8.6871980390
 H        -0.6214609347       -5.8787147110       -7.3746982964
 H        -3.9396182317       -3.4154302002       -3.7595059451
 H        -2.7722652529       -4.6215467477       -3.2431005114
 H        -3.4956741137       -1.4480652613        1.8381061789
 H        -4.0807389041       -1.1806309254        0.2734174051
 H        -4.1387034854       -2.7607484751        0.9846407137
 H        -3.8903326376       -4.0758296110       -0.4101860558
 H        -2.4831767741       -4.9476705238        0.2859110865
 H        -2.7092935075       -5.0079691780       -1.4388282072
 H        -0.1121209665       -4.0250752673       -0.3943149215
 H        -0.5995796080       -4.0340318427       -2.1064319663
 H        -0.0921764110       -2.5218651657       -1.1780647788
 Na       -1.4120938630        0.9152395672        1.4358311549
