155

 C       -13.5136150006       -2.6451653208        3.5682957560
 C       -12.2027418220       -2.9525881683        2.8389919575
 C       -10.8062640333       -2.5813920005        3.5601172395
 C        -9.6553426638       -2.8723953981        2.5816197880
 C        -9.4064200375       -4.3340155166        2.0894432312
 C       -10.9165756131       -1.0407369344        3.8714974757
 C       -10.7147253946       -3.4474729297        4.8222441341
 O       -12.2516077124       -3.6369800494        1.8319123537
 O        -9.0627961044       -1.9417225324        2.0323131824
 C        -8.1860641168       -4.4915384374        1.2069057316
 C        -6.8847398029       -4.6381095440        1.9311817771
 C        -5.3775187405       -4.3608183544        1.4002373881
 C        -5.2776620770       -3.9159773143       -0.0937082723
 C        -4.4595950640       -2.6377830539       -0.4105140589
 O        -6.9562907049       -4.9940956063        3.1130305432
 O        -5.8441418610       -4.4684641487       -1.0326061052
 C        -4.7649393340       -3.2972482708        2.4572300613
 C        -4.5239903077       -5.6387994530        1.6391687526
 C        -3.9981996074       -2.7745604621       -1.8570947887
 C        -2.8376961718       -1.8812172350       -2.2237557683
 C        -2.7194475899       -0.8646043378       -3.3704465249
 C        -2.7096968286        0.6338667385       -2.6768493416
 C        -3.9885195376        1.4919400154       -2.8699930592
 C        -1.3115786063       -0.9777091642       -4.0499192657
 C        -3.8217655206       -1.0464650827       -4.4324806829
 O        -1.9335353159       -1.8202097817       -1.3420557253
 O        -1.6959561841        1.0480450977       -2.1327163556
 C        -4.0308203792        2.7749667538       -2.0631473667
 C        -4.7562943716        2.4290069755       -0.7827115675
 C        -4.6637866034        3.4354014751        0.3254018613
 C        -3.1453079367        3.1016344268        1.0949704732
 C        -3.3310853718        2.0464758381        2.1774490873
 O        -5.3524738517        1.3772345799       -0.6072184019
 O        -2.2244542807        3.8178037642        0.8590179884
 C        -4.7486709469        4.9275261838       -0.1472465081
 C        -5.8418085114        3.2091832395        1.3135161461
 C        -1.9691864930        2.0095961757        2.8941707087
 C        -0.9660391910        1.1333898490        2.2215852440
 C         0.5100704296        0.8291075232        2.8389372907
 C         1.4994759720        1.0825842675        1.5503330930
 C         1.8901600668        2.5717727459        1.1749858587
 C         0.7457099967        1.8090630874        3.9553011406
 C         0.6684300006       -0.7736374993        3.2577406715
 O        -1.2834072268        0.5773670425        1.1578445639
 O         1.7882697611        0.1715853734        0.8693915132
 C         2.6499642416        2.7244359209       -0.1552298450
 C         1.9845766812        1.9951730676       -1.3945386719
 C         2.8618544348        1.3411364331       -2.5983014689
 C         2.9847484443       -0.2736976766       -2.3610199324
 C         4.1513864932       -1.0746580539       -2.9742810809
 O         0.8363383465        1.6543970400       -1.2791719631
 O         2.2368278071       -0.8984130108       -1.6517693014
 C         1.9972617379        1.4891419347       -3.9007943955
 C         4.1895569267        2.0009257917       -2.8202197748
 C         5.3875196598       -1.4100998233       -2.0011217010
 C         5.6037324175       -0.3621888122       -0.8604510591
 C         7.0925769116       -0.4244634979       -0.2170482727
 C         7.7471913326        0.6695843356       -1.1108873940
 C         8.9040400341        1.6149753551       -0.5612726951
 C         6.9103972607       -0.2422801869        1.2957418914
 C         7.6573005667       -1.8768775983       -0.3739474648
 O         4.7912714076        0.4229097536       -0.4229483623
 O         7.2850028229        0.8074357612       -2.2426900662
 C         9.6013181807        2.3311947900       -1.7973429334
 C        10.6254757988        3.2493718704       -1.1772986181
 C        12.0379792336        3.4569943823       -2.0205346925
 C        12.7381814538        2.0757915888       -1.9037391626
 C        13.9907719139        1.8576845610       -1.1926160242
 O        10.4827176476        3.9128231294       -0.1743821088
 O        12.2416201728        1.1480790301       -2.5535737000
 C        11.6122594681        3.6468711879       -3.4574902850
 C        12.7594360095        4.6334069595       -1.3652056094
 H       -13.4083906872       -1.6506648286        3.9756410672
 H       -14.2722284635       -2.5141618403        2.8108749928
 H       -13.7956513199       -3.4727245051        4.2163566498
 H        -9.2741451736       -5.0701988394        2.8210542963
 H       -10.3365620436       -4.7616698472        1.6015295291
 H       -10.0097524668       -0.7125696229        4.3939324210
 H       -11.7620008574       -0.6246767191        4.4806741036
 H       -10.8917005491       -0.5047876873        2.9556862383
 H       -11.5739335135       -3.2810171481        5.4751248618
 H       -10.6189534312       -4.5583781685        4.6064966183
 H        -9.7681806887       -3.1192527183        5.3089148113
 H        -8.3703441698       -5.3028174424        0.4401490304
 H        -8.0704679000       -3.4742267977        0.6585154467
 H        -5.2040944573       -1.8256120056       -0.3402870758
 H        -3.6488171526       -2.5080513078        0.2756783403
 H        -3.6316512681       -3.2310717285        2.3303568943
 H        -4.9184142641       -3.6230612814        3.5201784636
 H        -5.1968688441       -2.3483380956        2.4733480304
 H        -3.6015691804       -5.5271166127        1.1191742481
 H        -4.5002840250       -5.7644070881        2.6832497963
 H        -5.0300913551       -6.5212864575        1.2118591891
 H        -4.7939749234       -2.7321014156       -2.5609227704
 H        -3.5387756979       -3.7209029030       -1.9792107435
 H        -3.9514556753        1.6948530622       -3.9890208171
 H        -4.8889385085        0.8434274914       -2.6722206652
 H        -0.5946564749       -0.7108088015       -3.2524731687
 H        -1.2379952041       -0.1806242698       -4.7080195046
 H        -1.1493554968       -1.9536721362       -4.6290191417
 H        -4.0963066611       -2.0438256446       -4.6673418318
 H        -4.7981601436       -0.7005984690       -4.0314259884
 H        -3.7406488900       -0.5329960178       -5.3545955782
 H        -3.1043337345        3.1741369332       -1.8980659018
 H        -4.5340974402        3.6560159289       -2.5542344790
 H        -4.1232541464        2.4054993597        2.7959999262
 H        -3.5496263537        1.0603857320        1.6687758840
 H        -3.9848466174        5.2342622345       -0.8572669563
 H        -4.6739590450        5.5949731307        0.7381973597
 H        -5.7446113181        5.2048070682       -0.4990710757
 H        -6.6987095538        3.3772731759        0.6782071716
 H        -5.9218123925        2.1653428177        1.7137761869
 H        -5.7609930044        3.8629408183        2.1872474457
 H        -2.2822565090        1.6379804986        3.8617421158
 H        -1.5436990223        2.9904817756        2.9810841740
 H         0.9523250069        3.1051961112        1.1651105145
 H         2.4432678604        2.9311013899        2.0760707838
 H         0.5062032412        2.8820104439        3.7027908995
 H         1.6983308425        1.5964916446        4.4589401997
 H         0.0091557187        1.6163660451        4.7599122519
 H         1.2792230707       -0.8636002251        4.1841125518
 H        -0.2678816749       -1.1824280334        3.5186214408
 H         1.0286374822       -1.2439606420        2.3713683075
 H         2.8560170364        3.8027738259       -0.4529429660
 H         3.6342609305        2.3037601641       -0.0061014307
 H         3.7385094996       -1.9896741137       -3.3875844795
 H         4.6152781869       -0.4565980802       -3.8456196359
 H         2.1552949281        2.5028102889       -4.1768901743
 H         0.9230378677        1.4123474469       -3.6974874879
 H         2.2010886610        0.9512611710       -4.7434138406
 H         4.7069998841        1.6656617497       -3.6508023343
 H         4.0971384502        3.0781647080       -2.7771934715
 H         4.6836338306        1.8190226748       -1.9419525039
 H         6.2934632823       -1.5798624891       -2.5836794723
 H         5.1530559425       -2.4047611982       -1.6081486636
 H         8.5104013845        2.3777699041        0.0970789175
 H         9.5961523231        1.0470536631        0.0375760309
 H         6.2894823884        0.6201336667        1.4663726834
 H         7.9061049048       -0.0564734809        1.7979412454
 H         6.5875750976       -1.2040963617        1.7850142185
 H         7.7521031946       -2.2628475621       -1.4051483977
 H         8.6858403233       -1.8859452078       -0.0140887762
 H         7.0287003859       -2.5674858851        0.2111369061
 H        10.0564621676        1.7132307496       -2.5624063907
 H         8.6858854394        2.8369638973       -2.1377799541
 H        14.8049884913        2.3380424414       -1.7194874092
 H        13.9511525287        2.2237188595       -0.1603590773
 H        14.2152276811        0.8029171792       -1.1961562947
 H        10.9032301894        4.4117326359       -3.5076464553
 H        11.1336427545        2.7512038026       -3.8104693714
 H        12.4132079377        3.9087011999       -4.1219671720
 H        13.5318376477        4.9588162182       -1.9563777207
 H        11.9632535409        5.3867826952       -1.2892580966
 H        13.0894110660        4.3519157235       -0.4147657917
 Na       -0.0148023228       -0.4996076843       -0.9474474422
