155

 C         0.0734775019        3.4681922177       -1.5343946539
 C        -1.1722880771        3.0251476066       -0.7876237350
 C        -2.3279204230        3.9698666537       -0.3343811587
 C        -3.7699047823        3.4553103501       -0.8006094955
 C        -4.7661308247        4.5373038703       -1.3179764598
 C        -2.4269391234        4.0669762587        1.2144630393
 C        -1.9686997538        5.3873584074       -0.9115240729
 O        -1.1497082109        1.8884328783       -0.4987916522
 O        -4.1854155805        2.3428256041       -0.5227337341
 C        -6.1644039478        4.0295802405       -1.0137000729
 C        -6.2996962758        3.7691241956        0.4957808493
 C        -7.4539115177        2.8381860660        0.9857869743
 C        -6.8019300767        1.9206668529        2.1413689962
 C        -6.6384668446        2.6700943138        3.4917941634
 O        -5.8149049695        4.5575630975        1.3378620251
 O        -6.4913874207        0.7902138699        1.9122569693
 C        -8.6124578926        3.8184512537        1.4520458237
 C        -8.0857930410        2.0930779934       -0.1989256395
 C        -5.7105420200        1.8330655880        4.4106428253
 C        -4.3080952060        1.5252013397        3.7907250241
 C        -3.2517910485        0.7496921939        4.7403423683
 C        -1.8582435125        0.7204176064        4.1859630228
 C        -0.6281325404        0.7206947289        5.1216949457
 C        -3.3236844014        1.5016730495        6.1458966982
 C        -3.6337141682       -0.7867374940        5.0020653014
 O        -4.0421077442        1.8942964934        2.6869056225
 O        -1.6095360063        0.6224384853        2.9617435778
 C         0.5540991753       -0.0311690413        4.5781029590
 C         1.9319849581        0.0764598367        5.3256467967
 C         3.0671892443       -0.9984269110        5.4229126617
 C         3.9564291148       -0.8559387480        4.0887519590
 C         5.4491992724       -1.0240262392        4.2195912443
 O         1.9678211229        1.0983542373        6.0115636296
 O         3.3410994920       -0.8281670413        3.0669489413
 C         3.7758039240       -0.7866374691        6.7463635234
 C         2.4793887079       -2.4253411094        5.3328783675
 C         6.1507628914       -0.8419495895        2.9032998578
 C         6.5536934365        0.6279543351        2.5881830000
 C         7.1686435534        1.0230805474        1.2417469493
 C         6.7225327538        0.0904876518        0.0521935354
 C         6.2088283122        0.7190568260       -1.2562177322
 C         6.7725852310        2.4600645362        1.0285053302
 C         8.7063365415        0.9957421750        1.4944197538
 O         6.5701401772        1.3397588409        3.5148700424
 O         6.9832509689       -1.0821529470        0.1373722405
 C         6.1351991191       -0.2589794777       -2.3961300139
 C         5.0519762756        0.2440309799       -3.4804982769
 C         5.0213566942       -0.5546533127       -4.9706661032
 C         4.1715668399       -1.8071328974       -4.6944394109
 C         2.7031082892       -1.9084589884       -5.1991939864
 O         4.2544126419        1.1101653680       -3.3580068610
 O         4.5243197863       -2.7745724847       -4.0256481830
 C         4.5432308863        0.4936098066       -5.9680513534
 C         6.4631121373       -0.9136731756       -5.2855256125
 C         2.1068472613       -3.2609334174       -5.4064964944
 C         0.7933120963       -3.2472083318       -6.2651433071
 C        -0.2761306739       -4.5224408025       -6.4374173499
 C        -0.5301248109       -5.0886344004       -4.9853557137
 C        -1.7618241734       -4.6325742438       -4.2558502931
 C        -1.4952882603       -4.0019326718       -7.1592426210
 C         0.3339023325       -5.6929540742       -7.2566780519
 O         0.5032144656       -2.2332644371       -6.8699590995
 O         0.2274928541       -5.9882978214       -4.5589880724
 C        -1.8622983404       -4.7296003822       -2.7724421840
 C        -2.8874074315       -3.6672774203       -2.1894424112
 C        -2.7688807361       -3.4598532896       -0.5142413162
 C        -3.4860843043       -2.2102519171       -0.1096327732
 C        -4.9086713572       -1.8647779732       -0.4771108810
 O        -3.6661243350       -3.1451307866       -2.8672852447
 O        -2.8997177770       -1.4070871467        0.6463022787
 C        -3.3515786690       -4.6288265487        0.1974066939
 C        -1.2450189650       -3.1934312459       -0.3697994843
 H         0.7016378495        4.0850274448       -0.9541660864
 H         0.6361365966        2.6187393913       -1.8975144409
 H        -0.2836406878        3.9229962362       -2.4785373694
 H        -4.3220691989        5.5004752708       -0.9229098086
 H        -4.3936682085        4.5240140499       -2.3712002024
 H        -1.4128518268        4.1376555251        1.7061978319
 H        -3.0144910094        3.2124583003        1.5663869809
 H        -3.0785513889        4.9294317871        1.4075454090
 H        -1.8930445634        5.3011585870       -1.9611237468
 H        -2.7449732291        6.1027547150       -0.6629439346
 H        -0.9914603565        5.7034134983       -0.4872843010
 H        -6.9793479231        4.7119705362       -1.2718242750
 H        -6.2469109098        3.1250112120       -1.6161936374
 H        -6.1809311035        3.6064053094        3.2300068795
 H        -7.6875151867        2.9112984944        3.7845345965
 H        -8.1775628522        4.7233747428        1.9320230003
 H        -9.2510016180        3.2681319440        2.0946036173
 H        -9.1313716045        4.0017860360        0.4264360970
 H        -8.3209228071        2.8380642492       -0.9754936836
 H        -7.4825796002        1.3052507429       -0.6215732901
 H        -9.0539044994        1.6381617274        0.0308088325
 H        -6.2017143132        0.9003746508        4.8113649159
 H        -5.4464952380        2.4452457876        5.2159193526
 H        -0.4204771654        1.7049643945        5.4564724711
 H        -0.9671084190        0.2278558146        6.0735275622
 H        -4.2541931052        1.2599133834        6.5892228765
 H        -3.2980932900        2.6370011793        6.0823218123
 H        -2.5885524856        1.1398173225        6.8724969382
 H        -3.5778876584       -1.3496858797        4.0251566744
 H        -2.8312644404       -1.2225075509        5.6277022757
 H        -4.6297261679       -0.7762832186        5.5132544701
 H         0.2060168580       -1.0010954389        4.3594210678
 H         0.7094451105        0.4429325996        3.6418032952
 H         5.8418897370       -0.4546913379        5.1082707124
 H         5.5203999126       -2.0747260119        4.4918081830
 H         4.3307947071        0.1381130573        6.7944470986
 H         4.3516414796       -1.6105821460        7.1399182701
 H         2.9383309441       -0.6194174890        7.3984410639
 H         3.3450007955       -2.9295153289        4.9891270871
 H         2.0710177994       -2.8641351872        6.1843923240
 H         1.6635218163       -2.4603878743        4.5820626554
 H         5.5189843416       -1.3104691199        2.1254124727
 H         7.0247488389       -1.4759980665        2.7638882755
 H         5.2131835131        1.1253877179       -1.0007214627
 H         6.7559042260        1.5466951995       -1.7134776382
 H         5.7165233204        2.5217330855        0.8405929290
 H         7.3425294906        2.8878825806        0.2505729997
 H         7.0726440788        2.9985240423        1.9280656111
 H         9.2310385194        1.3717991643        0.6160275765
 H         8.8640332735        1.7502320289        2.1943222644
 H         9.0121530160       -0.0439647155        1.7666666101
 H         7.0522226886       -0.3714082084       -2.9458753137
 H         5.9214684676       -1.2339557499       -2.0558139087
 H         2.1744114913       -1.3363949949       -4.4498757010
 H         2.6676103821       -1.2578020624       -6.1427384310
 H         4.5203711747        0.0475583651       -6.9226482526
 H         5.0381738748        1.4333933906       -6.1125764754
 H         3.4857635855        0.7439708596       -5.7804952654
 H         6.8478992151       -1.5041486875       -4.4744305909
 H         6.6609260083       -1.4325571385       -6.2028774716
 H         7.0812208277       -0.0032957078       -5.2533709207
 H         1.8106325069       -3.7697859720       -4.4877646790
 H         2.8178023862       -3.9661616868       -5.9202702680
 H        -1.9193878412       -3.6136915250       -4.6206272300
 H        -2.5966966972       -5.2920080560       -4.6040067037
 H        -1.8848261035       -3.1986635222       -6.5436900682
 H        -2.2396056204       -4.7846312212       -7.1846804452
 H        -1.2969706991       -3.6263428036       -8.2054965616
 H        -0.5164854016       -6.3911065118       -7.5038340311
 H         0.7749380830       -5.4244021363       -8.1703235069
 H         1.0449427834       -6.2868341957       -6.6339763499
 H        -2.1066822398       -5.6524092078       -2.4658708685
 H        -0.8894838296       -4.5400950960       -2.3182553170
 H        -5.1362607446       -0.9283419649       -0.0242788156
 H        -4.8987640959       -1.7092143312       -1.5795751360
 H        -5.5914517955       -2.6550435627       -0.2602988532
 H        -4.3125751654       -4.9213181471       -0.3218515989
 H        -3.4491580252       -4.3213091557        1.2109904742
 H        -2.6812069732       -5.4452960910        0.1092075846
 H        -1.0041026718       -2.4630837917        0.4168584029
 H        -0.7461003915       -4.1129369441        0.0037666881
 H        -0.6644601589       -3.0353136096       -1.2721752434
 Na       -2.7429260402        0.7745548489        0.6953157268
