155

 C        -0.0346050057        3.3993492551       -1.4946637558
 C        -1.2721009707        2.9835967257       -0.7800530743
 C        -2.2763717527        4.1469741621       -0.3919991216
 C        -3.6472035264        3.6100717703       -0.7770347390
 C        -4.8276068296        4.5808216358       -1.3811993179
 C        -2.4204918772        4.4756110740        1.1673450465
 C        -1.9243592266        5.4862843165       -1.1252203456
 O        -1.4606438131        1.7579369107       -0.5688658629
 O        -3.9147951316        2.4341072775       -0.6712823676
 C        -6.1258358651        3.8100429834       -1.1241297478
 C        -6.4151436588        3.6551743320        0.4117690171
 C        -7.5847810321        2.8066055572        1.0478618949
 C        -6.9273090186        1.9767106230        2.1267545982
 C        -6.7027983343        2.5211959061        3.5694807814
 O        -5.7099071162        4.2276294829        1.1863976308
 O        -6.6777472109        0.7878542590        1.8918200053
 C        -8.7299428743        3.7578580852        1.6240042934
 C        -8.0891715360        1.7708621108        0.0160809555
 C        -5.7185683196        1.9362065029        4.5294934911
 C        -4.3063316316        1.5112271818        3.8631401768
 C        -3.2997429338        0.6433672839        4.7548685658
 C        -1.8265216978        0.6275888260        3.9992110517
 C        -0.6326066472        0.6665294252        5.0654324481
 C        -3.3461434476        1.1582297767        6.2533553087
 C        -3.7860889716       -0.8361499835        4.6950700433
 O        -3.9813997886        1.9333846270        2.7430707374
 O        -1.7200618049        0.6748197303        2.7976945787
 C         0.7066001359        0.0540321050        4.4037249426
 C         1.7928852335        0.0707781743        5.4833855803
 C         3.0093316774       -1.1336174548        5.4239301549
 C         3.7986770436       -0.8807083110        4.1095011418
 C         5.3318975113       -0.9312047669        4.1643893086
 O         2.0137022016        1.0090901935        6.1906600165
 O         3.2138701581       -0.5649131604        3.0474866120
 C         3.8006678938       -1.0797781280        6.7335578963
 C         2.2753687417       -2.5248605586        5.2975007268
 C         6.0278557636       -0.7058137912        2.8534371157
 C         6.5556370847        0.6226272180        2.6253843454
 C         7.2948747137        1.0214274381        1.1875533283
 C         6.8190193005        0.1696149997        0.0352203528
 C         6.2719714112        0.6797471330       -1.2258173989
 C         7.1274545083        2.5419305162        1.0190828269
 C         8.8332655477        0.6194951306        1.3171185419
 O         6.3390898836        1.4660697006        3.5444203713
 O         6.8970530063       -1.0728468289        0.1579861804
 C         6.2466589811       -0.2422750154       -2.5253763266
 C         5.1683741894        0.3300898612       -3.5165201988
 C         5.0292310697       -0.4319699878       -4.9222707146
 C         4.3023849604       -1.8621427983       -4.7336939349
 C         2.8874627178       -1.9741571330       -5.3478426166
 O         4.3508115816        1.1734946853       -3.1414695184
 O         4.7558141489       -2.7211116889       -4.0406278605
 C         4.1867489941        0.4390481980       -5.9003405570
 C         6.4218721595       -0.7590832651       -5.5459690626
 C         2.2110438885       -3.3793728238       -5.1926756998
 C         0.8985688239       -3.2449119116       -6.1045779881
 C        -0.0565931671       -4.4988950726       -6.3109878597
 C        -0.5718955050       -5.1112203757       -5.0385647275
 C        -2.0261112827       -4.8031689191       -4.3249829288
 C        -1.2333968920       -3.9568292325       -7.2270021416
 C         0.8761597306       -5.4852492097       -7.2114899857
 O         0.6564219526       -2.2545660556       -6.7770656380
 O         0.1858742304       -5.7227779096       -4.3658975770
 C        -1.6670802093       -4.6556164957       -2.7724589269
 C        -2.7223046598       -3.7595102257       -2.1009126559
 C        -2.6261854613       -3.2749843273       -0.5735062889
 C        -3.5047270410       -2.0371158038       -0.1378549186
 C        -4.8060780773       -1.8025669430       -0.7687534214
 O        -3.6633403589       -3.2893823192       -2.7781005273
 O        -3.1175284330       -1.3605103720        0.7591003162
 C        -3.2812148953       -4.5283688861        0.0962613861
 C        -1.1689617367       -3.2129525803        0.0072006120
 H         0.4365380145        4.1012629967       -0.7593677118
 H         0.5845281060        2.5322118430       -1.5355604174
 H        -0.0978744808        3.7582585175       -2.5055865851
 H        -4.7095212599        5.4436058654       -0.7816629234
 H        -4.7883490456        4.8861862200       -2.4311556030
 H        -1.4797868125        4.8145901766        1.5199301895
 H        -2.6464905576        3.5859394555        1.7024438184
 H        -3.2417771843        5.1598943092        1.2738628718
 H        -1.9650926331        5.3622518228       -2.2273757394
 H        -2.5777853552        6.2027076932       -0.6652124443
 H        -0.9228639662        5.7151432424       -0.9291618892
 H        -6.8848225376        4.4723024308       -1.5999719965
 H        -6.1654809629        2.8741161509       -1.7172372260
 H        -6.6089291544        3.6171676936        3.4890835594
 H        -7.7066186102        2.3576869524        3.9160323595
 H        -8.4565856148        3.9664504175        2.5947002180
 H        -9.6020237317        3.1078647705        1.6176665918
 H        -8.7379456108        4.5983853931        1.0687671551
 H        -8.5144171125        2.2656922853       -0.8315721792
 H        -7.3339367177        1.0402206512       -0.2820437660
 H        -8.9859097765        1.3059823158        0.4615060087
 H        -6.1430289490        0.9791165337        4.8339810938
 H        -5.6118814716        2.6116065444        5.4871037514
 H        -0.5312933564        1.6974736458        5.5379975196
 H        -0.8842403011        0.1359708932        5.9558425704
 H        -4.3659973105        1.0805335791        6.7512182495
 H        -3.2257708971        2.1940345902        6.2707028279
 H        -2.6074429905        0.6996611340        6.8706304832
 H        -3.4680917156       -1.3056525360        3.8154401950
 H        -3.2773121241       -1.4307535994        5.4668498524
 H        -4.8338400649       -0.7422238951        4.7220746579
 H         0.4592764982       -1.0283645502        4.1787936664
 H         1.0122219110        0.5668627426        3.4462813063
 H         5.7964952854       -0.2707988275        4.8860822962
 H         5.4791535912       -1.9730881159        4.5841090209
 H         4.3938546201       -0.1336882956        6.7787576293
 H         4.5886721126       -1.8914655665        6.6695518020
 H         3.1912854375       -1.1605412803        7.6775858206
 H         2.8182496795       -3.4710728946        5.6620953201
 H         1.3461436958       -2.2462382149        5.8991619167
 H         1.8122039369       -2.7051705747        4.3072759714
 H         5.4075840666       -0.8820327963        1.9758294042
 H         6.8688981167       -1.4061466321        2.5886203582
 H         5.2732277213        1.1265719947       -1.0399173336
 H         6.8201538208        1.5591075559       -1.5928378891
 H         6.1360167159        2.7556378696        1.3477623614
 H         7.0842242597        2.9234026197       -0.0656523921
 H         7.8574236116        3.0277288934        1.6238421796
 H         9.4007557586        0.9650665861        0.4547957805
 H         9.2830649829        1.1985171054        2.1571737047
 H         8.8795493351       -0.4276277611        1.2845139777
 H         7.1307138110       -0.6170373960       -3.0454559872
 H         5.8128889459       -1.1738980030       -2.0142193848
 H         2.3422027308       -1.2211442828       -4.7195685454
 H         2.9311569185       -1.5946075400       -6.3253240081
 H         3.9005979658        0.1328657537       -6.9388128129
 H         4.8377833739        1.2845475846       -6.1391064400
 H         3.3591560309        0.9292794300       -5.4444238172
 H         6.9359601404       -1.6720494778       -5.1846396857
 H         6.2060103885       -0.9975518622       -6.6200934996
 H         7.1297232498        0.0442604455       -5.4870314535
 H         1.9413585335       -3.8034956853       -4.2401054309
 H         2.8287634395       -4.1745238820       -5.5943652593
 H        -2.5553574509       -3.9571653022       -4.8162548585
 H        -2.5964849363       -5.7237025135       -4.4415119128
 H        -1.8314730726       -3.2562463860       -6.6337873785
 H        -1.8418397764       -4.7505435473       -7.6761584862
 H        -0.8083068853       -3.4273280015       -8.0057385654
 H         0.4170691181       -6.3936748573       -7.4259166118
 H         1.1831326467       -4.9442788086       -8.1094765728
 H         1.7557324513       -5.7416968373       -6.6730768124
 H        -1.7289057338       -5.6932210854       -2.1820428916
 H        -0.6137034061       -4.3116199922       -2.6588666756
 H        -5.0790423491       -0.7965524694       -0.4580209082
 H        -4.7708532904       -1.8159489103       -1.8992579390
 H        -5.4703709948       -2.5890685894       -0.3784009758
 H        -4.3097740749       -4.5285373691       -0.0187957923
 H        -2.9342279984       -4.4650451129        1.1553185769
 H        -2.8099280848       -5.4179709253       -0.3446983948
 H        -1.1799050442       -2.6070620826        0.9121855546
 H        -0.7176137011       -4.1674647424        0.2985964029
 H        -0.4163128534       -2.7823442021       -0.6775284781
 Na       -3.2343410916        0.9350163006        0.8754509437
