155

 C       -13.4839309024       -3.2496541989        3.9264648445
 C       -12.2769546104       -3.3783940970        2.9704548955
 C       -10.9079074935       -2.8325418141        3.6405130735
 C        -9.7475557905       -2.7332019528        2.5443041362
 C        -9.5739751639       -3.9211582424        1.7027275250
 C       -11.1992374405       -1.3264546969        3.9833887696
 C       -10.4248612160       -3.5800298240        4.9494700409
 O       -12.4008054021       -3.8692299498        1.8382788886
 O        -9.0991261200       -1.6717380793        2.4296047957
 C        -8.2022704955       -4.0885010861        0.9812491652
 C        -7.1261878847       -4.8002219667        1.8042782449
 C        -5.6680623125       -4.3307110096        1.6321266864
 C        -5.4037796730       -3.8611010728        0.2225803229
 C        -4.2126563029       -2.7792275026       -0.0284687554
 O        -7.3673839375       -5.8333945310        2.3631094432
 O        -5.9339530474       -4.2728073332       -0.7412577112
 C        -5.6083969215       -3.1318100894        2.6167331139
 C        -4.6480648226       -5.4490961448        2.0043436607
 C        -4.1485677592       -2.3256400585       -1.4832881046
 C        -2.7201981436       -1.6874072365       -1.9228444507
 C        -2.6259064764       -0.6800165582       -3.1336829436
 C        -2.6517210140        0.7483169609       -2.4230596593
 C        -3.4650655845        1.9502356272       -2.9977447634
 C        -1.1462004485       -0.6810922312       -3.5976678722
 C        -3.6543301592       -0.8570823918       -4.1970544058
 O        -1.8948058441       -1.8509623840       -1.0290415494
 O        -1.8727925706        0.9761232736       -1.4908121024
 C        -3.4530932340        3.0859156027       -2.0772301449
 C        -4.3859103992        2.7223268134       -0.8476397478
 C        -4.4051808419        3.5750788875        0.4350519837
 C        -3.1839462530        3.1654748163        1.3230875283
 C        -3.2827815729        1.9514935678        2.3458679598
 O        -4.9861267281        1.6862546471       -0.9147107071
 O        -2.1311306811        3.7451900109        1.0055576986
 C        -4.2747154707        5.1176797752        0.0271477839
 C        -5.7995162462        3.3653285447        1.1577796469
 C        -2.0227818199        1.8683009223        3.1082884403
 C        -0.9593730983        1.0062349740        2.4060763781
 C         0.4792689618        0.9108800923        3.0603114685
 C         1.4760310762        1.0409112546        1.7702317679
 C         2.2381987259        2.3088602929        1.4399689327
 C         0.9121596628        1.9712934124        4.1189691120
 C         0.6796177809       -0.6427094112        3.5116694100
 O        -1.1473591034        0.4485282655        1.3525401952
 O         1.5397746238        0.0307366531        1.0825494383
 C         2.9769498435        2.2635495718        0.0716574287
 C         2.0513947969        1.9482669858       -1.1234405450
 C         2.7444317197        1.4351215632       -2.4579248360
 C         2.8014457672       -0.1669732885       -2.2670358487
 C         3.9570125711       -0.7019700931       -3.1933388502
 O         0.8694070148        2.0275252725       -1.0501158813
 O         2.0191979921       -0.9075808694       -1.7863361335
 C         1.7746146083        1.8731193449       -3.6160079141
 C         4.1664663796        2.0297457334       -2.6063672626
 C         5.1925904413       -1.2702672542       -2.5218677347
 C         5.4052360063       -0.8181266936       -1.0045653121
 C         6.8620797023       -0.3739825316       -0.5228817519
 C         7.4801920427        0.6503102239       -1.5531370966
 C         8.6191706850        1.4562637984       -1.0651177930
 C         6.9294548589        0.2739494581        0.8359935584
 C         7.8105437034       -1.5617363892       -0.5826512017
 O         4.4225471419       -0.8498729321       -0.2519337877
 O         6.8863827230        0.9127866701       -2.6113802300
 C         9.6497596332        1.9049603682       -2.1491763264
 C        10.6842521114        3.0557115537       -1.7974370493
 C        12.0975382382        3.1583694546       -2.6520834992
 C        13.0138004789        1.9386011743       -2.4461316033
 C        14.2439967720        2.0495787612       -1.5528937691
 O        10.4270896766        3.7438755772       -0.8237126004
 O        12.5738597811        0.8679326134       -2.8566138912
 C        11.8821441732        3.2922239665       -4.1722392425
 C        12.8160597993        4.4963796552       -2.2516170706
 H       -13.0930488439       -3.2131706205        4.9465991826
 H       -14.1463683887       -2.4194105753        3.7228633146
 H       -13.9444661415       -4.2295666327        3.8932302550
 H        -9.6440139588       -4.8661830975        2.2764732907
 H       -10.2971961136       -4.0464823889        0.9907687259
 H       -10.2647612747       -0.8195707269        4.3077950195
 H       -11.9685760006       -1.1991876380        4.7136880551
 H       -11.5757656454       -0.8040769479        3.0915059571
 H       -11.3418036545       -3.8270221959        5.5355915396
 H        -9.8308203755       -4.5065087994        4.5639027783
 H        -9.7693687019       -2.8857493114        5.5512192703
 H        -8.3903888657       -4.7610100467        0.0894790059
 H        -7.8845269840       -3.1734186355        0.4522635657
 H        -4.2937378290       -1.9234516304        0.6010616762
 H        -3.3299599939       -3.2881840429        0.1944811150
 H        -4.6331687782       -2.8383841319        2.6082308336
 H        -5.8367360137       -3.5357440981        3.5738175434
 H        -6.1740080741       -2.2157287761        2.3573270502
 H        -3.6374445145       -5.3862138119        1.6014806836
 H        -4.5753098203       -5.4693291647        3.0446337592
 H        -5.2065369388       -6.3354354751        1.6227983704
 H        -4.8864924369       -1.5083585664       -1.5578030007
 H        -4.5930498843       -3.0926437723       -2.1907778412
 H        -3.0959730408        2.1355519528       -3.9821875789
 H        -4.4904575876        1.7176440191       -2.9587501543
 H        -0.5099547757       -0.9997301435       -2.7687336379
 H        -0.9326517588        0.2449010342       -4.0811624608
 H        -1.0220280543       -1.5019434225       -4.3110427121
 H        -4.2941007214       -1.7702015730       -4.1683866665
 H        -4.2578207458        0.0023418381       -4.1742432282
 H        -3.3050239939       -0.8682986118       -5.2427674063
 H        -2.3437146512        3.2212054929       -1.7992915408
 H        -3.7979099221        4.0158039152       -2.5559970747
 H        -4.2419815542        2.2530511563        2.8831715100
 H        -3.4258690825        1.0781283767        1.7146922796
 H        -3.2809919596        5.4557302597       -0.3480389060
 H        -4.3650849300        5.7740877541        0.8670690829
 H        -4.9443313355        5.4313665156       -0.7834664910
 H        -6.6611440246        3.6145571959        0.4666433602
 H        -5.9348470902        2.3734448157        1.5091696049
 H        -5.9233582915        4.0886446846        1.9656823973
 H        -2.1298569643        1.5193790210        4.1604133850
 H        -1.6948290796        2.9241799446        3.2862525214
 H         1.5306158985        3.1653982499        1.6062754527
 H         2.9340837561        2.4712845036        2.2194153278
 H         0.9736392292        2.9967071771        3.6710126569
 H         1.7678944282        1.7973044208        4.7244640166
 H         0.0874078889        2.0675129873        4.9263648487
 H         1.7413871947       -0.9037111159        3.3958712812
 H         0.1259207605       -0.7752714391        4.4657157571
 H         0.3049284214       -1.3395737413        2.8079231406
 H         3.3688533577        3.2210616820       -0.1633842944
 H         3.8548412747        1.6229212070        0.0782735220
 H         3.4904519834       -1.5434376829       -3.7356055611
 H         4.2378383055        0.0899721140       -3.9388443829
 H         1.9464946944        2.8973955589       -3.7756898134
 H         0.7588713432        1.7727442120       -3.4309043593
 H         2.0457656139        1.3790687995       -4.5303461566
 H         4.5648896343        2.1360767155       -3.6004464985
 H         4.0836518539        3.0678724032       -2.2431662884
 H         4.7450051040        1.3525777821       -2.1524470315
 H         6.0174681422       -1.0242013210       -3.1184643102
 H         5.1557035459       -2.3356547499       -2.5626660614
 H         8.4144543184        2.3945742006       -0.5852710006
 H         9.2832105516        0.8996405225       -0.4314187130
 H         6.2522632973        1.1664862289        0.7271344280
 H         7.9082127964        0.5242719878        1.0866528535
 H         6.4201972538       -0.2639218214        1.6512866150
 H         7.6437139230       -2.0691006248       -1.5167440578
 H         8.8323604456       -1.3910083455       -0.3905883035
 H         7.5427503948       -2.3508263441        0.1953658650
 H        10.3330432178        1.0551158951       -2.3148027341
 H         9.2411717175        2.1114702044       -3.0821181269
 H        14.0232493518        1.5189932005       -0.6534816500
 H        15.0077662111        1.5528452130       -2.0716483195
 H        14.5734779310        2.9970709547       -1.2713301355
 H        11.2664986571        4.1458578289       -4.4840057583
 H        11.6041904626        2.4206996185       -4.6339203017
 H        12.8398231649        3.4289769810       -4.5606637762
 H        13.6188379604        4.7720811081       -2.8640913924
 H        12.0316631247        5.1987008757       -2.3046460848
 H        13.0491736900        4.4730029661       -1.2246016685
 Na       -0.0220020248       -0.2985755198       -0.6241348227
