155

 C        -2.6793610641        2.6884239974       -3.7782425166
 C        -3.0189722650        2.2347664375       -2.3259494116
 C        -3.6805604238        3.3344073695       -1.3487244415
 C        -5.2973373825        2.9198958090       -1.0621724015
 C        -6.3468449814        3.9865564295       -0.6534017852
 C        -3.0683406709        3.2041785909        0.0605528279
 C        -3.5330749369        4.7569701106       -1.8756059913
 O        -2.5756685662        1.1357708053       -1.9376695321
 O        -5.5660675100        1.7313402826       -1.0007606990
 C        -7.5818289498        3.3224391440       -0.0369680464
 C        -7.8411232917        3.6096330328        1.4193664074
 C        -8.7628824483        2.8006220872        2.2628364765
 C        -7.9132116514        1.6697936807        3.0935072658
 C        -6.6775036159        2.1873184983        3.8397102193
 O        -7.1196128449        4.4121066421        1.9851841136
 O        -8.2899122599        0.4992701590        3.1423118821
 C        -9.6090231346        3.6325343672        3.2949597758
 C        -9.8331943203        1.9588827827        1.4825402804
 C        -5.8430943154        0.9832092798        4.2931703907
 C        -4.6872052041        0.4746729922        3.2977572481
 C        -3.7344315590       -0.5289851490        3.8151784900
 C        -2.3649423150       -0.1463152610        3.1660499929
 C        -1.3015311991        0.6273351565        4.1001173049
 C        -3.6066714201       -0.5752901414        5.4608731242
 C        -4.0152610281       -1.9671271748        3.2950419290
 O        -4.6859516032        0.8814439435        2.1808784863
 O        -2.2091870771       -0.2590428715        1.9629124424
 C        -0.3971471011       -0.3004721741        4.9381644802
 C         1.0711122014       -0.1173171255        4.5042047129
 C         2.2632961799       -1.1871494821        4.8774368667
 C         2.6280659624       -1.7482354108        3.4024746372
 C         3.5075715696       -0.7768497928        2.5679737952
 O         1.3403469018        0.8753965612        3.8846405314
 O         2.3123627055       -2.8528830818        3.0998330763
 C         3.4539817632       -0.6093145066        5.6869507724
 C         1.6655711613       -2.4355466438        5.6831146383
 C         5.0358168555       -1.1584260348        2.6436936705
 C         5.9433889285        0.0165227302        2.3069334306
 C         7.4084517895       -0.1343895906        1.7465206630
 C         7.1805615904       -0.1648182556        0.2295493314
 C         7.2007389279        1.1834987149       -0.5917909763
 C         8.1823466357        1.1830754647        2.0623968458
 C         7.9979920717       -1.3426123027        2.4516539055
 O         5.6454149118        1.1427192043        2.6706493955
 O         7.1255883488       -1.2762523396       -0.3394480515
 C         7.0728825594        0.9288021583       -1.9861870210
 C         6.4828906440        2.0646632648       -2.8977117230
 C         5.8520439083        1.6366871975       -4.3071379248
 C         5.4047336475        0.0355263785       -4.4259535988
 C         5.3385043508       -0.6519805490       -5.7579700796
 O         6.3062753216        3.2243061876       -2.5044834717
 O         5.2589587100       -0.6656918136       -3.4571945038
 C         4.4168335310        2.4704566543       -4.4353307269
 C         6.8090281827        1.9323367313       -5.3858164936
 C         5.0105488085       -2.1408202576       -5.7083522795
 C         3.6027051712       -2.3180444279       -4.8958620599
 C         3.3962217294       -3.4696475932       -3.8681118355
 C         2.2032955159       -3.0586405103       -2.9303859140
 C         0.7339177070       -3.4672834807       -3.4512791452
 C         3.1364418810       -4.9182457472       -4.4312062040
 C         4.5716415484       -3.5314677581       -2.9353598107
 O         2.6845744068       -1.5325704692       -5.1210450691
 O         2.3860072450       -2.4063676052       -1.9462797375
 C        -0.3581314695       -3.2691508019       -2.3970407320
 C        -1.8119412285       -3.4783746266       -2.9030377110
 C        -2.9441818439       -3.8295939454       -1.8677864179
 C        -3.6447650250       -2.5263089284       -1.6043649216
 C        -4.3825975038       -1.7793086448       -2.6555396021
 O        -2.1206323845       -3.2910577050       -4.1222418235
 O        -3.5487906964       -2.0169669368       -0.4651563161
 C        -3.8177064585       -4.9204387401       -2.4523770716
 C        -2.4979058113       -4.2442118225       -0.3991750508
 H        -1.7414192034        3.3025833199       -3.8652807599
 H        -2.3861897425        1.9093665364       -4.4326682468
 H        -3.5050546576        3.1835381802       -4.2291590858
 H        -5.8617694099        4.4305926679        0.2173290409
 H        -6.4974501404        4.6475889599       -1.5561534920
 H        -3.3761628489        4.0665677880        0.6937994923
 H        -1.9905210992        3.3650652656       -0.0041032076
 H        -3.3784040049        2.2355198023        0.4831486000
 H        -4.1850961516        4.9919348135       -2.7385391665
 H        -3.6779348926        5.5256811459       -1.1109245337
 H        -2.5057923976        4.7652209673       -2.2545931509
 H        -8.4818335979        3.5753992970       -0.6052568611
 H        -7.5065962887        2.2478571739       -0.0305657187
 H        -6.1776284025        2.9395214595        3.2681043846
 H        -6.9795058267        2.6684416719        4.7504434733
 H        -9.0971522360        4.4407983965        3.8699135361
 H       -10.0979806329        3.0108089397        3.9869302024
 H       -10.3590697798        4.2023188442        2.9707515835
 H       -10.4428420353        2.4186768503        0.7439842504
 H        -9.2947270113        1.2053311389        0.8205952261
 H       -10.3835138506        1.4098728551        2.2461203016
 H        -6.6561192069        0.1639652052        4.2624756638
 H        -5.4710332716        1.0914737713        5.3678571853
 H        -0.5827592347        1.3202176840        3.5306885619
 H        -1.8394234824        1.3071934408        4.7673099189
 H        -4.5556035722       -0.7879349920        6.0559784242
 H        -3.2806305651        0.3104576134        5.8590083458
 H        -2.8599822335       -1.2959226612        5.7793793800
 H        -4.5933611563       -1.9712347950        2.3912264298
 H        -3.0439843425       -2.5471843938        3.2417673277
 H        -4.6027878871       -2.5456209808        4.0368840726
 H        -0.4063122151        0.1165628111        5.9827490165
 H        -0.7834450316       -1.3173928693        4.9994193105
 H         3.1450468420       -0.7472181130        1.5143368044
 H         3.2859763879        0.2216119560        2.9061925787
 H         3.8701895665        0.2028525895        5.2029090374
 H         4.0854642724       -1.4913073641        5.8102772908
 H         3.0334340530       -0.3252368100        6.6188516817
 H         2.5147700724       -3.1847708843        5.6524424739
 H         1.3852344166       -2.2522475124        6.7416173305
 H         0.8384389295       -2.8326611224        5.1183443392
 H         5.1708092560       -1.9963014313        1.9602206295
 H         5.3740710436       -1.6070582399        3.6069243834
 H         6.5342644911        1.8341321044       -0.1269893341
 H         8.1780103659        1.6375878815       -0.4645975870
 H         7.5756847324        2.0610437285        1.9466072364
 H         9.0005889650        1.1835626520        1.3137056858
 H         8.6500447447        1.1291080136        3.0207384271
 H         9.0269477661       -1.5552858000        2.1870252271
 H         7.9065457875       -1.2682564430        3.5618773324
 H         7.5814696877       -2.2846743736        2.1956436340
 H         8.0067039186        0.7273625047       -2.6201010306
 H         6.4048299366        0.0268377048       -2.2607747356
 H         4.7583199159        0.0596938440       -6.4058779351
 H         6.3159626175       -0.6050973278       -6.3220008401
 H         4.0961714004        2.5157283736       -5.4793516536
 H         4.6189678648        3.5553148699       -4.1235693198
 H         3.6464693056        2.0245074957       -3.7964260713
 H         7.7666896120        1.4568781043       -5.2922006089
 H         6.4471292359        1.7574262750       -6.4122636623
 H         7.1453953854        2.9976264246       -5.3380814059
 H         5.8681479348       -2.7243174424       -5.4415604395
 H         4.7006184302       -2.5616933503       -6.6792299010
 H         0.5837845593       -2.8952425563       -4.3107346371
 H         0.9226334619       -4.5998898756       -3.6303716805
 H         2.2034741271       -4.9398157276       -4.9399352443
 H         3.1475060417       -5.6108203136       -3.6165951630
 H         3.9571454608       -5.2232189301       -5.1483274958
 H         4.4971880787       -4.4114796762       -2.2720204115
 H         5.4200916135       -3.5995130415       -3.4970246611
 H         4.5995371837       -2.7373800390       -2.2842585771
 H        -0.2995039040       -3.9459736045       -1.5656822018
 H        -0.2308291720       -2.2011628074       -2.0968488585
 H        -4.6684580750       -0.7816816796       -2.2695881290
 H        -3.8825984283       -1.7320904850       -3.5188817892
 H        -5.3752530517       -2.1673825027       -2.8160941336
 H        -4.0276615223       -4.7147328088       -3.4733210253
 H        -4.7542366508       -5.1525528087       -1.9697864850
 H        -3.2318830260       -5.8994336086       -2.5649869971
 H        -1.6129786379       -4.8961785183       -0.3899562678
 H        -2.1882438250       -3.4017389982        0.2394328626
 H        -3.3904785407       -4.7059585383        0.0722638158
 Na       -3.6220196829        0.3118500527        0.0760128358
