155

 C        -2.8965403883        2.0942875564       -3.7352711808
 C        -3.0728420386        1.9768907809       -2.2328393251
 C        -3.5889537069        3.1559590708       -1.2340497484
 C        -5.1297199298        2.6501580958       -0.9306783660
 C        -6.2600061647        3.6282181283       -0.3750979861
 C        -2.8591978633        3.1865268524        0.0607356649
 C        -3.4934990462        4.5447481185       -1.9486505714
 O        -2.9627631617        0.8548528759       -1.7009948706
 O        -5.4390927016        1.4812457162       -0.9386154863
 C        -7.5993249131        3.0542349995        0.1753783448
 C        -7.7842541704        3.4724046113        1.6951616323
 C        -8.7256740118        2.6068933263        2.5547660494
 C        -7.7385063296        1.6308184889        3.3016648789
 C        -6.7748015454        2.1174011290        4.3552601726
 O        -7.1472610018        4.4709904260        2.1106637313
 O        -7.6810536551        0.4272229024        3.0356814586
 C        -9.3762979928        3.4780182735        3.7440782624
 C        -9.8652696862        1.8140833754        1.8460461378
 C        -5.5631023707        1.1312980844        4.5522380853
 C        -4.9872324863        0.6521032031        3.1395442450
 C        -3.9512757634       -0.5768059596        3.2786976483
 C        -2.6323455485       -0.0266637900        2.6056050255
 C        -1.4953860920        0.5587511555        3.4448127154
 C        -3.6681757316       -1.0175709433        4.7738287101
 C        -4.5904018430       -1.8371139695        2.5138478080
 O        -5.2597629423        1.2162823806        2.0844808929
 O        -2.5276386908        0.0772313425        1.4404276206
 C        -0.4513073104       -0.5657161129        3.8981285055
 C         0.9153924094       -0.0251719719        4.0969076840
 C         1.9874923106       -0.9481256125        4.8374072749
 C         2.6817864377       -1.7518622082        3.5291259055
 C         3.4303371436       -0.8022260492        2.6249102327
 O         1.1789226055        1.1150016431        3.7351183511
 O         2.5901270672       -2.9378593005        3.4855348087
 C         2.9918729833       -0.1510922298        5.6798100041
 C         1.2102883292       -1.9459684495        5.7066375352
 C         4.9172224385       -1.1474674859        2.6046922277
 C         5.8515917605        0.0393841843        2.3805682608
 C         7.3218482096       -0.1776615481        1.9979975967
 C         7.5735331304       -0.1270225723        0.4211826822
 C         7.0238675832        1.1387005988       -0.3835197637
 C         8.1721596534        1.0886479440        2.4078472900
 C         8.0446387921       -1.3630508195        2.6393530096
 O         5.4052659985        1.1768579540        2.4137418282
 O         7.9488444413       -1.1432059548       -0.0619930302
 C         7.2116159590        1.0123131953       -1.9024631082
 C         6.5519353856        2.1473094963       -2.7367473137
 C         5.8537151724        1.7516389621       -4.1145379858
 C         5.3627582193        0.2800665052       -4.2711637685
 C         5.5832426173       -0.5173834475       -5.5860554201
 O         6.8187561667        3.3236004152       -2.4950887440
 O         4.9334448936       -0.3077608683       -3.3079577970
 C         4.6521452537        2.8561571872       -4.2114065471
 C         6.8113271025        2.1471991137       -5.3137900292
 C         5.1482061150       -1.9836500801       -5.5916229570
 C         3.7828344028       -2.1417476905       -4.8489427904
 C         3.5703607648       -3.3108388956       -3.7245842358
 C         2.3917261998       -2.9122516522       -2.8264131728
 C         0.9292138528       -3.3496142214       -3.2462131330
 C         3.2797214386       -4.7552820775       -4.3522185377
 C         4.9007670497       -3.5390775986       -2.9210820476
 O         2.8482136677       -1.3718852348       -4.9712660429
 O         2.4242004881       -2.2198407623       -1.8320476092
 C        -0.2447761258       -3.0165441644       -2.2570004706
 C        -1.6384997006       -3.4640213900       -2.9870435161
 C        -2.9066404845       -3.9724486112       -2.0569784127
 C        -3.8199642100       -2.6391341327       -1.8826144267
 C        -4.4216957628       -1.8365163250       -2.9869016631
 O        -1.8212763949       -3.4370824811       -4.1617021838
 O        -3.8618976832       -2.2087228056       -0.7442982609
 C        -3.4552992998       -5.1643976910       -2.7649266964
 C        -2.2402223714       -4.4166916137       -0.7311702857
 H        -2.2649688366        3.0318876658       -3.9847097750
 H        -2.4627945983        1.1908490104       -4.0647518091
 H        -3.8526560439        2.1837397971       -4.2632662464
 H        -5.7517991200        4.1617650951        0.4980062627
 H        -6.3044906537        4.3403118549       -1.1722726658
 H        -3.2129561293        3.9471105866        0.7682521224
 H        -1.7865570349        3.3496782540       -0.2663976443
 H        -3.0573374937        2.2181867200        0.6231518335
 H        -4.1100060614        4.5054399286       -2.7989841953
 H        -3.6859709756        5.3540692901       -1.2315660673
 H        -2.4761619103        4.7643545272       -2.3370627201
 H        -8.5659546202        3.4185181529       -0.2147584882
 H        -7.6394924604        1.9089309366        0.0569308088
 H        -6.4074741855        3.1279992595        4.0499225628
 H        -7.2338610389        2.3189695991        5.3268895135
 H        -8.6493449822        3.8810871849        4.5341583244
 H        -9.9504663323        2.8923089054        4.4140589368
 H       -10.1101682928        4.2802194875        3.6017821410
 H       -10.6457028255        2.5506538789        1.4520668993
 H        -9.4457109058        1.1016066364        1.1298571869
 H       -10.4832771914        1.3059146218        2.5509337478
 H        -6.0180349672        0.2390312733        4.9645964346
 H        -4.8407221280        1.5514863673        5.1758757753
 H        -1.0828771864        1.3892959186        2.8828935047
 H        -1.8922888775        0.9824632319        4.3934266933
 H        -4.5931139534       -1.4169721722        5.1527479943
 H        -3.3823764485       -0.2416754617        5.5167855188
 H        -2.9980736170       -1.8666957556        4.9377136178
 H        -3.7780894213       -2.3106259978        1.8773710031
 H        -5.0608744926       -2.5581659096        3.1379180554
 H        -5.4584378991       -1.5182059887        1.9029327588
 H        -0.9906342767       -1.0772517318        4.6333174394
 H        -0.3564057571       -1.3965398882        3.1187142291
 H         3.0634349154       -0.9896311329        1.6362824053
 H         3.3717420878        0.3241961170        2.8206016011
 H         3.4566394006        0.5932159581        5.0330118297
 H         3.6951223768       -0.9487165838        5.8330269504
 H         2.5875673679        0.1358005655        6.6425532585
 H         1.7670812397       -2.6931395701        6.1385372148
 H         0.7106248068       -1.3931830096        6.4544366480
 H         0.4379773476       -2.5302237698        5.1500992678
 H         5.1144659228       -1.8996152653        1.8246319863
 H         5.1303846194       -1.5610264763        3.5736948937
 H         5.9791111828        1.2910976392       -0.0950893956
 H         7.5393140322        1.8635925626        0.1800077596
 H         7.5750911949        1.9921937135        2.2964697366
 H         9.0505989651        1.1629526879        1.6281511297
 H         8.4949489129        1.0915633029        3.4303902911
 H         9.0954015803       -1.1385907462        2.5533740152
 H         7.9885900740       -1.3504399101        3.6816318494
 H         7.9067376028       -2.3813227739        2.2078110367
 H         8.2715073266        0.9216263477       -2.1773281852
 H         6.7986198242        0.1078025383       -2.2532446645
 H         5.0499928725        0.1745834412       -6.3265221424
 H         6.6827069525       -0.4793339714       -5.7442054456
 H         4.1782268817        2.8055090626       -5.1946999236
 H         5.1234843413        3.8410084439       -4.1685472308
 H         3.9250626928        2.6987322191       -3.3664623532
 H         7.6803274725        1.4799231785       -5.4487351161
 H         6.3382395659        2.0979141439       -6.3171688909
 H         7.1703971539        3.1477239843       -5.3037652259
 H         5.9408424497       -2.6317010949       -5.2825356813
 H         4.8214443119       -2.2995757658       -6.6604633037
 H         0.5564483839       -2.9696942227       -4.3045420023
 H         0.8032292612       -4.4424619131       -3.3124390783
 H         2.3837540668       -4.7216361407       -4.9961820287
 H         3.2132501823       -5.5035030853       -3.5522974263
 H         4.0818700667       -4.9986846844       -5.0090108447
 H         4.8557036567       -4.3302194345       -2.2236383854
 H         5.7523909897       -3.7468140089       -3.5438930151
 H         5.1259751085       -2.6114780223       -2.3976448151
 H        -0.3536261833       -3.5568345286       -1.2280338540
 H        -0.3232516032       -1.9224994759       -2.1729299769
 H        -5.1404765032       -1.1597521391       -2.4846664423
 H        -3.7364704546       -1.3085945617       -3.5584051090
 H        -4.8547594592       -2.4971013709       -3.6893736151
 H        -3.1263543426       -5.2224304902       -3.8026152197
 H        -4.4974107346       -5.4134248547       -2.7119636941
 H        -2.9639806732       -5.9649940037       -2.2269851823
 H        -1.3501191488       -5.0584340409       -0.9736489207
 H        -2.0456928532       -3.5680096169       -0.0120798471
 H        -2.9131208717       -5.1083496661       -0.1981156573
 Na       -4.2803256877       -0.0822697560        0.0413194439
