155

 C        -2.5393911268        2.4554811317       -3.4590296712
 C        -3.3519019529        1.9799963246       -2.2996861872
 C        -4.0672968575        3.0076327297       -1.3947191010
 C        -5.4180395678        2.4473346286       -0.8825356016
 C        -6.3092419211        3.4626264750       -0.1483140789
 C        -3.2060647168        3.3554664668       -0.2756190175
 C        -4.3653975206        4.2751156757       -2.2182793193
 O        -3.3679451188        0.8167578623       -2.0305303550
 O        -5.8483169879        1.3166124459       -1.2286510131
 C        -7.6957929773        3.0560171699        0.3155233277
 C        -7.8350892397        3.5920327116        1.7692342926
 C        -8.7135587601        2.8266024536        2.6750744928
 C        -7.7050311975        1.6962169214        3.3462555571
 C        -6.5204604642        2.1316152923        4.1436709124
 O        -7.0878208982        4.4721479476        2.2133303767
 O        -7.9827100600        0.4907317151        3.3007749744
 C        -9.2707705344        3.6450668324        3.8539184225
 C        -9.9028602406        2.0392045825        2.0358685852
 C        -5.5099037224        1.0175521418        4.3981411219
 C        -5.0074992242        0.4377846987        3.0808981779
 C        -4.1229744275       -0.8424053330        3.1181441973
 C        -2.6831272587       -0.4444907706        2.4222200713
 C        -1.5671910884        0.2296426473        3.2382438158
 C        -3.9569971296       -1.4436669432        4.5101471705
 C        -4.7957803839       -2.0277604541        2.2886065448
 O        -5.2941850163        0.8455715974        1.9700572693
 O        -2.5956749091       -0.5863580225        1.1996338644
 C        -0.2959361731       -0.6525455873        3.2726580445
 C         0.9235000696        0.0605361783        4.0298606955
 C         1.9554716216       -0.7608224561        4.6974607359
 C         2.8004732327       -1.5779302743        3.6635677319
 C         3.5184902582       -0.8637711383        2.5219884634
 O         0.9340518231        1.2577641725        3.9013939848
 O         2.7628689754       -2.7719711238        3.6976078199
 C         3.1686325123       -0.0145082113        5.4845147132
 C         1.2624744280       -1.7044414365        5.7539918098
 C         5.0781864826       -1.0797136946        2.6281893035
 C         5.9030039169        0.1402304369        2.2507295375
 C         7.4718872627        0.0399959473        2.2322470818
 C         7.8477735963       -0.1374543296        0.6196708377
 C         7.2826167615        1.0112415559       -0.2836220883
 C         8.1934640004        1.2802800426        2.7871853741
 C         7.9670764854       -1.2729080216        3.0156115146
 O         5.3270081144        1.1744206323        2.0883619081
 O         8.4354994927       -1.0195927354        0.1691134653
 C         7.4956396442        0.8800448395       -1.8313506808
 C         6.8194899638        2.0952921808       -2.5502990758
 C         6.0115445733        1.9962679405       -3.9714552076
 C         5.3245191688        0.5942478855       -4.1996867671
 C         5.5540650635       -0.2167960543       -5.4877711366
 O         6.7701428304        3.1844191640       -2.0225850706
 O         4.6646205550        0.0566175716       -3.3233986769
 C         4.9399264312        3.2499297973       -4.0935028924
 C         7.0862196942        2.3188272928       -5.0584583989
 C         5.2065035855       -1.7045762662       -5.2634945533
 C         3.8712626597       -1.9340898159       -4.6725499727
 C         3.7040469014       -3.0242567307       -3.5000666283
 C         2.3112447962       -2.8272165525       -2.7275824715
 C         1.0057476713       -2.9217323183       -3.4932587253
 C         3.5720681351       -4.4370107873       -4.1736725115
 C         4.7859804408       -2.9760931560       -2.4472597085
 O         2.9010314610       -1.4515615884       -5.1805261865
 O         2.3165442485       -2.9329217206       -1.5026982249
 C        -0.1395679387       -3.2133336738       -2.4843256121
 C        -1.4753135806       -3.6333000746       -3.1944588798
 C        -2.6828347333       -4.0924270372       -2.2596542398
 C        -3.5498511341       -2.8452566846       -1.9600505907
 C        -4.0480965786       -2.0842105040       -3.2426010110
 O        -1.6837849287       -3.4399419690       -4.3249132499
 O        -3.7690686661       -2.4199827067       -0.8296973425
 C        -3.4186646051       -5.1928013130       -3.0531117777
 C        -2.3559928650       -4.6904608118       -0.8163552516
 H        -1.9804787977        3.3200665985       -3.2084210300
 H        -1.9477811689        1.5387851190       -3.6938177863
 H        -3.1128118175        2.7403037477       -4.3835684002
 H        -5.7675377531        3.9814486705        0.6153762569
 H        -6.3917125761        4.3764149661       -0.7894855917
 H        -3.7841080045        3.9934144805        0.4479593931
 H        -2.2737454718        3.8127498410       -0.6993576600
 H        -2.7797964682        2.4698800079        0.1947397951
 H        -5.3069134014        4.1029859254       -2.7850230254
 H        -4.5644612396        5.1999775405       -1.7088614484
 H        -3.5678540934        4.4336053284       -2.8920123222
 H        -8.5133185166        3.4934000916       -0.3510013870
 H        -7.8206706062        1.9755627231        0.4602087290
 H        -6.0242464928        3.0469630049        3.8139708506
 H        -6.9645135069        2.3917687336        5.1624046492
 H        -8.6475653774        4.0194065904        4.6489758254
 H       -10.0959790470        3.2649423973        4.4683221378
 H        -9.6631284012        4.6199092557        3.2954260221
 H       -10.2435767018        2.5678600799        1.1174040063
 H        -9.6389294098        1.0046018400        1.8851852186
 H       -10.6672932069        1.9542111845        2.8732887427
 H        -5.8921145639        0.2432131472        4.9710129869
 H        -4.6410739226        1.3717356778        4.9843135047
 H        -1.2501585655        1.0935259429        2.6931496188
 H        -1.8362332665        0.4824227936        4.2583566305
 H        -4.8626010118       -1.8701164556        4.8499652537
 H        -3.6126059443       -0.7204670978        5.3369973678
 H        -3.2044492147       -2.2445388998        4.4870879737
 H        -4.1794330319       -2.7424345620        1.7291925627
 H        -5.2724496308       -2.6939528750        3.0388805409
 H        -5.5325183202       -1.5976780011        1.6344175150
 H        -0.5749305271       -1.6887148694        3.7746188884
 H         0.0587976867       -0.9106695629        2.3202140865
 H         3.2126937560       -1.3093418741        1.5269292894
 H         3.3499617502        0.1690735255        2.5325883650
 H         3.4736715335        0.7244017799        4.6780246153
 H         3.9289509464       -0.7126418424        5.7757864868
 H         2.6784251008        0.6569648817        6.2216525604
 H         1.9832380898       -2.2097650304        6.2898724561
 H         0.6536926811       -1.3681831122        6.5656888584
 H         0.6419454181       -2.4666125069        5.2003722689
 H         5.3752933939       -2.0232225681        2.1861686287
 H         5.1871844433       -1.2569336562        3.7206937297
 H         6.1867787567        0.8810276830       -0.2250605155
 H         7.6015733679        2.0151692610        0.1745981074
 H         7.9267686169        2.2174003603        2.2349422606
 H         9.2626978985        1.1728204731        2.8035788054
 H         7.9697519529        1.4333641672        3.8959312440
 H         8.9636779257       -1.4677010610        2.6888644657
 H         7.8079752869       -1.3494809625        4.0861164271
 H         7.3651407209       -2.0638137227        2.6230494357
 H         8.4852395176        1.1298941051       -2.1680366028
 H         7.2696715050       -0.0106093488       -2.3182243774
 H         4.9096813107        0.1973937217       -6.1862540924
 H         6.6366377210       -0.2051647242       -5.6005075569
 H         4.3048881225        3.0213345347       -4.9806949876
 H         5.6253016093        4.0257668062       -4.2368789971
 H         4.3057630962        3.5414991142       -3.2734635667
 H         7.8722059108        1.5749213277       -5.2605191157
 H         6.6521967544        2.5292378917       -6.0126790899
 H         7.7204283321        3.1870876506       -4.7984024115
 H         5.9818410511       -2.1652769349       -4.5345289081
 H         5.2843959792       -2.1103664197       -6.2029547848
 H         0.8755022506       -1.9947115713       -3.9962021266
 H         1.1310815592       -3.5573461672       -4.3500862701
 H         2.6614226176       -4.5641471572       -4.7625725236
 H         3.5035063012       -5.1773409422       -3.3655527607
 H         4.4555108060       -4.6526530240       -4.7616962836
 H         4.6428351224       -3.7585538198       -1.7599321743
 H         5.7583696322       -3.1664296097       -2.9649761997
 H         4.9458999270       -1.9856155382       -1.9128940371
 H         0.1783086729       -3.9300498830       -1.7952943809
 H        -0.2461635929       -2.3688472658       -1.7463544218
 H        -3.6100480607       -2.4453143169       -4.1615100174
 H        -5.1509263353       -2.3181252794       -3.4671319452
 H        -3.8433789978       -1.0099295312       -3.1375124473
 H        -3.8006698920       -4.6694073049       -3.9472899213
 H        -4.2435411064       -5.5814271691       -2.4340470873
 H        -2.8199170959       -5.9462939339       -3.3782863606
 H        -1.3402872671       -5.1927728383       -0.8141640883
 H        -2.3589307193       -3.8765155347       -0.0722015331
 H        -3.0818725457       -5.4820354333       -0.4749480498
 Na       -4.6291268717       -0.3233535768        0.0407928910
