155

 C        -2.7753210128        2.6253290274       -3.7591839042
 C        -3.4395984129        2.1532374368       -2.5350908126
 C        -4.3844915078        3.1576083409       -1.7960545171
 C        -5.7151780903        2.4160254165       -1.2778135821
 C        -6.8058066200        3.4046544618       -0.6765596130
 C        -3.6578955015        3.6516612151       -0.5436334184
 C        -4.8241241580        4.3281290441       -2.6769295476
 O        -3.1495638141        1.0286741650       -2.1058355164
 O        -5.8772036226        1.2634754128       -1.2920039757
 C        -7.5215057585        2.7764462530        0.5426333805
 C        -7.8756734211        3.6954211724        1.7437023895
 C        -8.6617512386        2.8965044132        2.8394157193
 C        -7.8499890183        1.5262601361        3.3855566651
 C        -6.3913721734        1.7576586016        3.6878047760
 O        -7.6878034676        4.8738815787        1.9217728697
 O        -8.4064283319        0.4450611003        3.6263127446
 C        -8.7773099858        3.7279114455        4.1167086294
 C       -10.0708240979        2.4970816415        2.3513395955
 C        -5.7716164510        0.4755643086        4.2139035353
 C        -5.0753926227       -0.1772492089        3.0423023668
 C        -4.0658570743       -1.3329449805        3.2614471754
 C        -2.7471941486       -0.9368868758        2.5269291293
 C        -1.5674998106       -0.4109336020        3.3223374025
 C        -3.7999781963       -1.5806027332        4.7803838203
 C        -4.5961928993       -2.6615160201        2.6440744538
 O        -5.2348389897        0.2673435915        1.8849462311
 O        -2.7049363197       -0.9288969992        1.3008902350
 C        -0.1412055172       -1.0237389139        3.1348794497
 C         0.8091312766       -0.0162850124        3.9772133882
 C         2.1214417881       -0.6904497914        4.7018441084
 C         2.7735450670       -1.5840651424        3.6251542528
 C         3.7364244065       -1.0260595922        2.5902004371
 O         0.6670843322        1.1664765605        4.0034556285
 O         2.3678567266       -2.7403113634        3.4389657384
 C         3.0170787183        0.5320327968        5.1679892405
 C         1.4576561388       -1.5409389835        5.8465147966
 C         5.3106250972       -1.0943398584        2.8268998315
 C         6.0751705661        0.2010512798        2.4285170157
 C         7.6576431323        0.1595010817        2.3526108140
 C         7.9662461527        0.1315716893        0.7117269407
 C         7.5104662754        1.4185992784       -0.0303471616
 C         8.0845110611        1.3606534905        3.1751958380
 C         8.2279603707       -1.2267226237        2.8542245117
 O         5.5181244789        1.1714686722        2.0164383067
 O         8.1673443250       -0.9110555076        0.2001941723
 C         7.1698275078        1.1297249384       -1.4347613912
 C         6.6835615562        2.3096419078       -2.2741884416
 C         6.2846202345        2.0480628065       -3.8633001950
 C         5.4038157335        0.8604524246       -4.0722316427
 C         5.3556566794        0.0984372173       -5.4296126985
 O         6.7456877417        3.4564291015       -1.9466097021
 O         4.7508666803        0.4072160654       -3.1536164261
 C         5.4060829787        3.3340512118       -4.3243855253
 C         7.5870190197        1.8454637616       -4.6640668821
 C         5.1706845129       -1.3991824608       -5.1737875517
 C         3.8693241803       -1.7062658419       -4.3556681915
 C         3.8048592111       -2.8179907618       -3.2433160955
 C         2.3669373831       -3.0110462859       -2.5430627021
 C         1.0485511942       -3.1112411657       -3.3380443229
 C         4.0859558164       -4.1814244303       -3.9195700113
 C         4.8708306836       -2.5828610729       -2.1346199848
 O         2.8201254072       -1.3150277641       -4.7308529476
 O         2.2317812180       -3.1409097873       -1.3336048584
 C        -0.1224440365       -3.5718822795       -2.4633224134
 C        -1.3712544114       -3.6042571544       -3.2623140561
 C        -2.7460684548       -4.1328187309       -2.5066920823
 C        -3.6104530133       -2.8200158157       -2.3014838475
 C        -4.2797504493       -2.2442772710       -3.5347680777
 O        -1.4033757703       -3.3896272809       -4.4227109075
 O        -3.6277333737       -2.2506235435       -1.2138173011
 C        -3.5355622795       -5.0443088884       -3.5249375206
 C        -2.4500747061       -4.7705538750       -1.1824647399
 H        -2.1178798574        3.4549416083       -3.5869384724
 H        -2.0943612477        1.7592246011       -4.0739796013
 H        -3.5019692389        2.9128657571       -4.5049328081
 H        -6.2304225793        4.3233352593       -0.4276340095
 H        -7.5028584059        3.7804852421       -1.4148682843
 H        -4.2249411038        4.4292480025        0.0174107084
 H        -2.8340431173        4.2953882569       -0.8416118109
 H        -3.3172553683        2.7916438491        0.0374930769
 H        -5.4113536188        3.9591698326       -3.5242586299
 H        -5.4347429283        5.0480588518       -2.1771530089
 H        -3.9910513912        4.9375244203       -3.0311409724
 H        -8.4613179399        2.4236363830        0.2484315239
 H        -7.0020880696        1.9031739485        0.9350098338
 H        -5.8245584577        2.1100209259        2.7902422309
 H        -6.3228356200        2.5330364936        4.4053458720
 H        -7.9817478947        4.3579623619        4.2569494469
 H        -8.9631272216        3.0809979377        4.9777032161
 H        -9.6298967757        4.4405563007        4.1287550575
 H       -10.6549824368        3.3680607754        2.4258754859
 H        -9.8949930930        2.3121338984        1.2659895333
 H       -10.4804518308        1.7776855584        3.0792766953
 H        -6.3715684173       -0.2687944521        4.8831062981
 H        -4.8635165351        0.6718112271        4.8763008306
 H        -1.6545928121        0.6777619158        3.1336668319
 H        -1.7486710920       -0.3865329190        4.3895146411
 H        -4.7923510805       -1.8934792208        5.2422062401
 H        -3.4890872141       -0.7121539741        5.2853515898
 H        -3.0114026756       -2.3243987181        4.9432707544
 H        -4.1716701453       -3.4437737890        3.2387427157
 H        -5.7173244588       -2.6890324893        2.6465583891
 H        -4.2481639649       -2.8263050410        1.5982329165
 H        -0.1509306568       -2.0243970170        3.5091640930
 H         0.0589577760       -0.9148043221        2.0735711178
 H         3.5049446666       -1.6128164711        1.7687862493
 H         3.6830996933        0.0251160710        2.2256810540
 H         3.7997735047        0.8157576691        4.4359055548
 H         3.5039853259        0.1479643226        6.1326980811
 H         2.3327355663        1.4062433850        5.3372564096
 H         1.9670977050       -2.1465987074        6.6315377794
 H         0.7154030478       -0.8697716939        6.3800250922
 H         0.7879989325       -2.3327886800        5.5303005328
 H         5.6384512488       -2.0281717087        2.3216853562
 H         5.4943465955       -1.4227533129        3.8518199656
 H         6.7260646206        1.9225376661        0.5646074711
 H         8.4081714346        2.0222353202       -0.0204061533
 H         7.7745967421        2.3211807315        2.6849358696
 H         9.1175383643        1.4430945376        3.0148263331
 H         7.8344075136        1.4057437611        4.2725477086
 H         9.2185490223       -1.2423647625        2.3990994947
 H         8.3160354149       -1.1788943119        3.9467278554
 H         7.7186249331       -2.0545843502        2.4337659549
 H         8.0411874819        0.7255242308       -2.1141170199
 H         6.2498601354        0.3844183877       -1.4141249046
 H         4.4438260403        0.3847592770       -6.0210605998
 H         6.2389815148        0.3920570116       -5.9650898012
 H         5.1157838072        3.2167588695       -5.3257321099
 H         5.9845327343        4.2788982101       -4.1939729205
 H         4.6044249095        3.3090208778       -3.6502585483
 H         7.9900522626        0.8596611760       -4.6925757032
 H         7.5054495031        2.2164033265       -5.7073650824
 H         8.3318323642        2.5349222440       -4.2575256026
 H         6.0002857628       -1.7772495552       -4.5929554405
 H         5.3458314342       -1.9080182941       -6.1439271233
 H         0.7841922090       -2.1934739034       -3.8067056384
 H         1.1776709798       -3.8282936165       -4.1647659714
 H         3.2239963109       -4.4851276256       -4.4720418682
 H         4.3050791089       -4.8926249405       -3.1430620227
 H         4.9707492282       -4.1513648503       -4.6309609355
 H         4.8791731665       -3.5428006529       -1.5250441023
 H         5.8553657664       -2.6066672734       -2.6419751191
 H         4.7186562977       -1.7760122005       -1.3715109794
 H         0.1494533350       -4.5434558839       -2.0095750943
 H        -0.2779195555       -2.9369144759       -1.5369677971
 H        -4.4274538152       -1.1942179385       -3.4738921105
 H        -3.6464514304       -2.6218381116       -4.4404881692
 H        -5.3633141562       -2.6371224536       -3.6320027847
 H        -3.6556273884       -4.5501405431       -4.4600089437
 H        -4.5062126725       -5.1546020853       -3.0748795148
 H        -2.9806975839       -5.9773109190       -3.6774011735
 H        -1.5713495055       -5.4177544384       -1.2353887786
 H        -2.1262437245       -3.9953812442       -0.4638516679
 H        -3.4065167849       -5.2043547498       -0.8018892249
 Na       -4.1921976009       -0.3667082435       -0.1570986120
