155

 C        -3.5388985001        2.2474792274       -3.9975447888
 C        -3.7560322066        1.9013822334       -2.5281988265
 C        -4.8225617210        2.7795102593       -1.7780696687
 C        -6.0550258493        1.8786212356       -1.2469350624
 C        -7.3492662660        2.5755023218       -0.9818597331
 C        -4.0597744316        3.4237989259       -0.4815987227
 C        -5.4396764674        3.7840132262       -2.7910540817
 O        -3.0024518984        1.1551338820       -1.9493647914
 O        -5.9031955810        0.7309734206       -0.9700852737
 C        -8.1249283274        2.0603926465        0.2360733416
 C        -8.0552838948        3.2189777448        1.2756073009
 C        -8.5916357258        2.9533063316        2.7414368676
 C        -7.9911374556        1.5910872573        3.2606124799
 C        -6.5146039145        1.4435136015        3.9423812491
 O        -7.5384019042        4.3152747578        1.0641218408
 O        -8.7521816798        0.6005788032        3.1448688081
 C        -8.1734392813        4.0727842026        3.7393684436
 C       -10.1861386208        2.7440057830        2.9120717375
 C        -5.8790861255        0.0351035241        3.8228293233
 C        -4.9130929906       -0.3618128549        2.7475849723
 C        -3.9936738940       -1.7216024735        2.8463116035
 C        -2.5540542634       -1.0860453247        2.5996496289
 C        -1.5172758131       -1.1252935269        3.6424609104
 C        -4.1297686527       -2.4934846562        4.1674863425
 C        -4.1259057055       -2.6845949242        1.7057227965
 O        -4.8630631082        0.3638156581        1.7662744237
 O        -2.3386996572       -0.5436004512        1.4920421756
 C        -0.0882948465       -1.2055331104        3.1405793628
 C         0.7437568915       -0.1490263127        3.8878326149
 C         2.1591776360       -0.4391951607        4.4173805014
 C         3.0425537971       -1.2603501202        3.3553427492
 C         3.7108612514       -0.5347906857        2.1554920382
 O         0.1978107448        0.9028940882        4.1581877735
 O         3.1424595631       -2.4676959281        3.3474480152
 C         2.8051441340        0.8463591744        4.8054939129
 C         2.2002508914       -1.3369728156        5.6799906376
 C         5.2247945489       -0.9526791885        2.3389551215
 C         5.9785804268        0.2500827394        2.9206189896
 C         7.5419529982        0.2313645706        2.5554452320
 C         7.8218260494        0.3390519508        0.9868364876
 C         7.8052810985        1.6355182829        0.1688832168
 C         8.2373245041        1.5372179001        3.2316841030
 C         8.2286407413       -0.9742589687        3.2005700336
 O         5.5969274315        1.1009198371        3.6620624308
 O         8.1905996582       -0.6788141748        0.4619780430
 C         6.7203510482        1.4257686139       -0.9056023926
 C         6.8201422901        2.4611386702       -2.1260101453
 C         6.4752070442        1.9188679374       -3.5635697253
 C         5.1330816228        1.0832336602       -3.5982099167
 C         4.8234932951        0.5058500733       -4.9937460089
 O         7.1403960005        3.5908915315       -1.9428986146
 O         4.3948328144        0.9448039206       -2.6373425293
 C         6.4194558627        3.1491716733       -4.5068104953
 C         7.6870603043        1.0616491038       -3.8864538620
 C         4.4898746597       -1.0546180955       -5.1424311740
 C         3.4015239625       -1.2999928972       -4.1319050839
 C         3.7835129355       -2.5127693873       -3.0157337765
 C         2.4011269257       -2.9315203091       -2.4377133297
 C         1.3744050957       -3.6814358120       -3.2732862305
 C         4.3193371324       -3.8058945492       -3.7420741472
 C         4.6944059354       -2.1352144491       -1.9147609399
 O         2.3344976822       -0.7562436366       -4.0520065749
 O         2.2140704806       -2.6843168631       -1.2510384741
 C         0.0490521575       -3.9910855068       -2.5752846223
 C        -1.1531570058       -3.6410352589       -3.3989574583
 C        -2.7867862862       -4.0029299594       -2.9508687788
 C        -3.1799936014       -2.5296106103       -2.4966526713
 C        -3.6102427996       -1.5425779998       -3.5956003664
 O        -1.0412089434       -2.9346929903       -4.3306523137
 O        -3.1113197406       -2.2739946110       -1.2946654508
 C        -3.5614710546       -4.5411913027       -4.1865406658
 C        -3.0545517031       -5.0707317601       -1.8834962333
 H        -3.0968509786        3.2640001100       -3.9797801808
 H        -2.8463042880        1.5502061518       -4.5543152769
 H        -4.4175198802        2.2257258622       -4.5384582539
 H        -7.0896287668        3.5998311945       -0.7012824387
 H        -7.9468440598        2.4496141560       -1.9020044724
 H        -4.7757133293        4.0549736870        0.0475784912
 H        -3.1395985303        3.9636588040       -0.7597083400
 H        -3.6671599327        2.7133695411        0.3130263323
 H        -6.1700663081        3.2839547480       -3.3494445677
 H        -5.9972945920        4.4852291904       -2.1686464964
 H        -4.8001542926        4.4530687165       -3.4176388557
 H        -9.1649881952        1.9173556331       -0.0369457112
 H        -7.7781669777        1.1501238759        0.6366623886
 H        -5.9139889089        2.1676368857        3.4479327503
 H        -6.6498685316        1.6785189596        5.0312967441
 H        -8.7941645350        4.8472074610        3.5671782195
 H        -7.1726649009        4.3512404689        3.4873204971
 H        -8.4600550800        3.7655990010        4.7831615840
 H       -10.5277792995        3.7295066316        2.7396797303
 H       -10.6463431056        1.8627596617        2.3632196361
 H       -10.2791445910        2.3855774931        3.9196269769
 H        -6.7111707037       -0.8157170883        3.7512676373
 H        -5.3827698785       -0.2706228027        4.7843099951
 H        -1.7208230314       -0.1453065713        4.1114782664
 H        -1.6165557801       -1.9720249008        4.3031887943
 H        -5.2202987862       -2.8370793761        4.2365451436
 H        -3.9787793604       -1.8407491023        4.9601173526
 H        -3.4071480531       -3.3067819923        4.2892183395
 H        -4.3939601319       -3.7128925975        2.0074946283
 H        -4.9297908890       -2.4432461129        1.0445008451
 H        -3.1533582209       -2.6431373731        1.1751101116
 H         0.3269882469       -2.1276575015        3.0560629420
 H        -0.1172100342       -0.8588587756        2.0456985076
 H         3.3203173406       -0.9212920724        1.2169153228
 H         3.6581076502        0.5746056226        2.1785344129
 H         2.6762040985        1.6996330817        4.1478516077
 H         3.9345176081        0.6007407258        4.8083120022
 H         2.5159887944        1.1822732903        5.8262466485
 H         3.1434019070       -1.3820281114        6.3164145087
 H         1.4971729288       -1.0799232123        6.5242224117
 H         1.8186588115       -2.3420033458        5.4427831806
 H         5.7185517345       -1.1637851694        1.4108836935
 H         5.4188655668       -1.7891216325        3.0468488301
 H         7.5911572942        2.4917765692        0.8323886112
 H         8.8136832734        1.7802472413       -0.3008655319
 H         7.7386192401        2.5239767887        3.0116992569
 H         9.2959681246        1.6616705033        3.0428717903
 H         8.2711865513        1.5666703156        4.3259499470
 H         9.2599987449       -0.6426870504        3.3796177856
 H         7.6273055681       -1.1140708572        4.0872758258
 H         8.1970562583       -1.8728590414        2.5764245253
 H         6.8228563301        0.4749398597       -1.4311573412
 H         5.6364992840        1.5078903505       -0.6089246786
 H         4.0176817511        1.1289414537       -5.3790801354
 H         5.5578754698        0.8621621417       -5.7266916731
 H         6.1458665040        2.8610417712       -5.4833983456
 H         7.4035245585        3.6947465903       -4.4047837983
 H         5.6612842681        3.8592975825       -4.1621392801
 H         7.6435716055       -0.0184242115       -3.6006868660
 H         7.8561790271        1.1731212021       -4.9909540794
 H         8.4829690482        1.5130378424       -3.2954607712
 H         5.4296720391       -1.4977357598       -4.9335497004
 H         4.0983697339       -1.1703382362       -6.2203046198
 H         1.0449808996       -3.0486288241       -4.1727487321
 H         1.6110115677       -4.6247806430       -3.7260542804
 H         3.7885638819       -3.9820761211       -4.6865405001
 H         4.2657032418       -4.7547510116       -3.2093214921
 H         5.3377210682       -3.6317002473       -3.9400046290
 H         5.0476528082       -3.0467640106       -1.3432094352
 H         5.5680372721       -1.6753546455       -2.3733752065
 H         4.2360086519       -1.3958495725       -1.2600952175
 H         0.0962497961       -5.1503716741       -2.3310423489
 H         0.0850553903       -3.2955612733       -1.6989183497
 H        -3.1080480834       -0.6565872714       -3.3369572138
 H        -3.0981714254       -1.8848325959       -4.5783719977
 H        -4.7617148537       -1.3975420725       -3.6815072385
 H        -3.5203967833       -4.0196166343       -5.1276335583
 H        -4.5223363862       -4.7072184810       -3.8088543463
 H        -3.0872419136       -5.5733009783       -4.2907516813
 H        -2.8843817742       -6.0811220336       -2.2685984022
 H        -2.5056009483       -4.9834206947       -0.9166458542
 H        -4.0991884906       -5.0518701111       -1.5444225987
 Na       -3.8574753951       -0.3899240005       -0.1408511438
