155

 C        -3.5378423285        2.1340030853       -4.0769123344
 C        -3.8896761821        1.8396082808       -2.6421129581
 C        -4.9675160416        2.7531669354       -1.8622163484
 C        -6.0986096861        1.7930948939       -1.3487621007
 C        -7.5683694846        2.2295057047       -1.1663878553
 C        -4.2862810038        3.3157326898       -0.5455906678
 C        -5.3829373353        3.9852625060       -2.6264439095
 O        -3.1789477176        1.1036195278       -1.9608234182
 O        -5.8381963723        0.6115830467       -1.1088082320
 C        -8.2993299713        2.0525109807        0.1951393474
 C        -7.8885443471        3.0471601287        1.3282697092
 C        -8.4858064332        2.7661047202        2.8101848340
 C        -7.9591206049        1.3207577080        3.3120554139
 C        -6.4929343550        1.3272695310        3.9325259402
 O        -7.2916081769        4.0817735290        1.1232688171
 O        -8.5467744039        0.3370844767        3.0718111646
 C        -8.0161861509        4.0318443744        3.6876468942
 C       -10.1193680752        2.7393856593        2.7194781908
 C        -6.0116593836       -0.0945571125        3.8964606227
 C        -5.0910177079       -0.3395950446        2.6916491217
 C        -4.0966620695       -1.5503844641        2.7695051565
 C        -2.5570968810       -1.2126492298        2.3768840636
 C        -1.4822151784       -1.3876486182        3.5915630515
 C        -4.1780060776       -2.2312868023        4.1617309339
 C        -4.6983345279       -2.5270360305        1.6786166832
 O        -5.0984568144        0.4221724239        1.7322321098
 O        -2.1804036102       -0.7665916083        1.3387157978
 C         0.1015998782       -1.3065517616        3.2010590694
 C         0.8279235562       -0.2106007327        4.0669447464
 C         2.3018992563       -0.4434153870        4.5237426022
 C         3.1710335328       -1.1639512559        3.4354785302
 C         3.7952527116       -0.3724091594        2.3146065715
 O         0.2420586817        0.8242938315        4.3106884178
 O         3.0921316044       -2.3762876695        3.3479249955
 C         2.8050227459        0.9745948362        4.8645904511
 C         2.2564654353       -1.3059185610        5.7642128718
 C         5.2529487956       -0.4745643119        1.9790640506
 C         6.1463553297        0.4753687212        2.9214827635
 C         7.6862987418        0.4499215298        2.6463264876
 C         7.9443045466        0.3913965621        1.0891333946
 C         7.7152964732        1.6835680847        0.3415503376
 C         8.3581903417        1.5650952078        3.4334606870
 C         8.1395677327       -1.0296635642        3.2325770411
 O         5.6555566735        1.0461428144        3.9269801156
 O         8.0391270709       -0.7107480389        0.5096843316
 C         6.8271124726        1.3720737422       -0.8061812492
 C         6.9417382944        2.3666268658       -1.9967909779
 C         6.5838335100        1.8879969763       -3.5138386042
 C         5.1415865178        1.2091098416       -3.6211503554
 C         4.6594422326        0.6421003813       -4.9848551871
 O         7.2499300462        3.5129112992       -1.7804020489
 O         4.3862584007        1.1506850648       -2.6964264072
 C         6.4570052102        3.1426706273       -4.4467999429
 C         7.6784329901        0.8987200697       -3.9478343996
 C         4.5000548480       -0.8609645606       -4.9486642383
 C         3.3335066732       -1.3571233531       -4.0402850143
 C         3.6353255521       -2.6006337531       -3.0054618561
 C         2.2225086608       -3.0264311917       -2.3002500983
 C         1.2515039192       -3.6597221040       -3.2266801703
 C         4.2495935697       -3.6920172757       -3.8002633655
 C         4.6256529879       -1.9168274947       -1.9705425883
 O         2.1790070927       -0.9625762192       -4.1255892715
 O         2.0169946982       -2.7190323330       -1.1531676164
 C        -0.1741490754       -4.0436629317       -2.5610574408
 C        -1.2374542419       -3.6551820183       -3.5563174776
 C        -2.6327571454       -3.8467773646       -3.0242360258
 C        -3.0154659217       -2.4848380158       -2.4986761952
 C        -3.5008404930       -1.4026639937       -3.5483088989
 O        -1.0779393191       -3.0010237176       -4.5927388110
 O        -2.9216391554       -2.2823935696       -1.3000189552
 C        -3.5778481414       -4.2359756844       -4.2066538408
 C        -2.5064818605       -4.7857978404       -1.8304993977
 H        -3.2612073506        3.1780665606       -4.1846339764
 H        -2.6966464614        1.5472000023       -4.2135151395
 H        -4.2340847586        1.7598635970       -4.8973590073
 H        -7.5856080371        3.3011665657       -1.3732906555
 H        -8.1059517669        1.5865544291       -1.8494696605
 H        -5.0361148928        3.8531503162        0.0504005651
 H        -3.4106754250        3.9625818718       -0.6874245492
 H        -3.8903102721        2.5507646292        0.0721107992
 H        -5.8561202664        3.7969327183       -3.6302127669
 H        -6.0574785308        4.6504902392       -2.0928033263
 H        -4.4906064728        4.5535423527       -2.6516656400
 H        -9.3180644432        2.3216627597       -0.1244120040
 H        -8.3163460638        1.0073497328        0.5854313769
 H        -5.9218672405        2.0079585921        3.2490076605
 H        -6.5241419396        1.7309521602        4.9211777421
 H        -8.8676532074        4.5535961331        4.3054950320
 H        -7.3949681209        4.6252111183        2.9542450700
 H        -7.4176549718        3.5837832175        4.4201535554
 H       -10.4565104814        3.5061094184        1.9873610827
 H       -10.3807960296        1.7617163074        2.5431862635
 H       -10.4146264367        2.8718071810        3.7423454480
 H        -6.7989946849       -0.7429739167        3.8757989534
 H        -5.4183584848       -0.3689518815        4.7610317474
 H        -1.6473696866       -0.4148939153        4.1030789407
 H        -1.6569122483       -2.2877197707        4.2201107431
 H        -5.1422256181       -2.4104633418        4.4191043809
 H        -3.7219938258       -1.6390802816        5.0186167107
 H        -3.5825670759       -3.1131378036        4.0941352146
 H        -5.6132840913       -2.9282917824        2.0882458040
 H        -5.1508029120       -1.9461645005        0.8579273782
 H        -4.0062978720       -3.2536102607        1.3278198378
 H         0.7856841240       -2.2661156651        3.1802875290
 H         0.0715767602       -1.0424688795        2.1702973179
 H         3.3349462958       -0.7603670782        1.3441059844
 H         3.4565533042        0.6336314622        2.4860191120
 H         2.7681554542        1.5515287152        3.9145166091
 H         3.7721235954        1.1228618004        5.2516380780
 H         2.0456158755        1.5038953362        5.4578658562
 H         3.2574846381       -1.1667576245        6.1645430684
 H         1.6491524263       -1.0980281386        6.5798987384
 H         2.1587013618       -2.3628800792        5.6861195950
 H         5.4054395706       -0.2161313679        0.8935868740
 H         5.6454300764       -1.4801554595        2.1583517731
 H         7.3049313566        2.4889772730        0.9260264297
 H         8.6647894154        2.0314654645       -0.0040481498
 H         8.0784992871        2.5482654056        3.3304523950
 H         9.4709989934        1.5815766245        3.3692145159
 H         8.2672132536        1.3931591625        4.4748308319
 H         9.1758247730       -1.1057213908        3.0076115274
 H         7.6282840500       -1.2121850885        4.1859049173
 H         7.6295558749       -1.7285518201        2.5584955720
 H         6.8845836843        0.4038431016       -1.2237947829
 H         5.7697533924        1.4231345559       -0.6394872567
 H         3.7138841543        1.2287521365       -5.1385444691
 H         5.1914079362        0.9979951405       -5.8865296913
 H         6.4832030438        2.7707717760       -5.4953231195
 H         7.3012241694        3.6864294883       -4.2536261670
 H         5.6139602476        3.7977298632       -4.3840499161
 H         7.8773172276        0.3901477232       -3.0252202846
 H         7.3270601982        0.2134016237       -4.6677716940
 H         8.6046789479        1.3973186457       -4.2618398980
 H         5.5383803429       -1.0888586605       -4.5428970402
 H         4.2729981022       -1.1480487562       -5.9057056463
 H         1.0623210531       -3.0028511940       -4.0821945228
 H         1.6566469342       -4.6107261897       -3.6898455433
 H         3.6421679563       -4.4188079517       -4.3171109768
 H         4.8315447718       -4.2999378207       -3.1066277869
 H         5.0176627728       -3.2618569768       -4.4756912489
 H         4.4873327609       -2.2389960095       -0.9303278102
 H         5.7032150324       -2.1337718801       -2.2645113449
 H         4.4858685073       -0.8326081602       -2.0334241936
 H        -0.1300859466       -5.0254082465       -2.3137635974
 H        -0.3596813290       -3.3518482548       -1.7515182989
 H        -3.1450969012       -0.3481235777       -3.3739217813
 H        -3.1909734029       -1.6336855264       -4.5018212539
 H        -4.5177848823       -1.5591530396       -3.4928266806
 H        -3.1023381754       -3.6489910094       -5.0215670851
 H        -4.6073109330       -3.8723804062       -3.9162417473
 H        -3.5098354689       -5.2359679644       -4.5376793372
 H        -1.9403696815       -5.6899811814       -2.0880929381
 H        -2.0286478642       -4.4138670302       -0.9428094022
 H        -3.4787232991       -5.0907856135       -1.4318326085
 Na       -3.8241002506       -0.4281422035       -0.3577405812
