155

 C        -4.0012214735        2.5160829232       -4.1233671309
 C        -3.9399273700        2.2104146205       -2.5738667351
 C        -5.0639547071        2.8022201573       -1.7348847370
 C        -6.1732141072        1.7356617493       -1.3584352395
 C        -7.6694728736        2.0570314688       -1.2679179662
 C        -4.1662629883        3.3192023205       -0.5109281101
 C        -5.7749906373        4.0356476329       -2.3326742703
 O        -3.1284331487        1.4216673890       -2.1550971890
 O        -5.8999179693        0.5409638482       -1.2857530578
 C        -8.2647812425        1.7570262089        0.0788366336
 C        -7.8522492635        2.7185967566        1.1682011137
 C        -8.4494539415        2.6070801463        2.5669308883
 C        -7.6999520729        1.2130062913        3.0229040487
 C        -6.4402656437        1.3793815623        3.9749252823
 O        -6.9844962189        3.5951054918        0.9750114710
 O        -8.2816178692        0.1838254449        2.7740816795
 C        -8.0568335546        4.0177334984        3.3609836875
 C        -9.9590208554        2.3432997272        2.4346825290
 C        -5.5976577250        0.1292781712        4.1980516144
 C        -4.8226489919       -0.3520875955        2.8531033036
 C        -4.0806315693       -1.7753615685        2.8331448309
 C        -2.4737662053       -1.4378002981        2.5717245574
 C        -1.4062950969       -1.6396106075        3.6898737412
 C        -4.2893050885       -2.5118332995        4.1361059945
 C        -4.4485726395       -2.7685997531        1.6725506302
 O        -4.7090086182        0.4099586956        1.8741376172
 O        -2.2272133591       -0.9982427621        1.4590806617
 C        -0.0762023067       -1.2318082501        3.0897725682
 C         0.5196663081       -0.2212108180        4.0746630238
 C         2.0668467764       -0.3732261825        4.5346685927
 C         3.0587355311       -0.7374358430        3.3568188492
 C         3.6550006724        0.2562397764        2.4198826521
 O        -0.1944899843        0.6312084595        4.5361819055
 O         3.4344320460       -1.8901571533        3.3103843331
 C         2.5618036862        1.0074320676        5.0872529314
 C         2.1008804159       -1.4508921377        5.5992449207
 C         5.0550686269       -0.1743243811        2.1366412797
 C         6.0765527439        0.5747702540        3.0994483699
 C         7.5518392386        0.3607034446        2.7337688139
 C         7.8069988881        0.3206527056        1.1939732781
 C         7.5140208919        1.5580787951        0.3738932339
 C         8.3758824839        1.5100345215        3.2666221748
 C         7.9973833966       -1.0622587551        3.3597815988
 O         5.7389354019        1.1100107626        4.1225453890
 O         8.2705056047       -0.6905273630        0.6482341441
 C         7.0412646126        1.2523487981       -0.9949537032
 C         7.1022167949        2.4015588986       -1.9505853601
 C         6.6171336206        1.9842629805       -3.4258415562
 C         5.1673145258        1.4993704632       -3.3953076548
 C         4.4556756140        0.9537815437       -4.7481357775
 O         7.5629405425        3.4533896750       -1.6495069476
 O         4.4395261246        1.6395133908       -2.4468742606
 C         6.6598031488        3.1515232807       -4.3640841762
 C         7.5921356164        0.8735770540       -3.9799871384
 C         4.6147284791       -0.5595600869       -4.8101595637
 C         3.5390728299       -1.3061552300       -4.0200739406
 C         3.6926529132       -2.4696497258       -2.9709375668
 C         2.3126749271       -2.9996495927       -2.4660255772
 C         1.2471572269       -3.6727550628       -3.3863905859
 C         4.6608267645       -3.5542414103       -3.6018684627
 C         4.3622819263       -1.8151948956       -1.7420656345
 O         2.3803724685       -1.0487226626       -4.3632227085
 O         1.9997507222       -2.8811105525       -1.2936145716
 C        -0.0941887874       -3.9986521921       -2.7026836753
 C        -1.2994135473       -3.8087713621       -3.6544707073
 C        -2.8232402243       -3.9041853220       -3.0735296085
 C        -3.2378444581       -2.5472952084       -2.6619548984
 C        -3.3341896710       -1.4339822310       -3.7046205037
 O        -1.0885515492       -3.6382556181       -4.8232020784
 O        -3.2712599155       -2.2366484457       -1.4735249659
 C        -3.7715448210       -4.3906075722       -4.3185725369
 C        -2.7737778241       -4.8650239932       -1.8635150972
 H        -3.9787363155        3.5848262254       -4.3612592535
 H        -3.2805386414        1.9528714502       -4.6527896663
 H        -4.9843095216        2.1417581096       -4.4935562637
 H        -7.8717630681        3.1000345061       -1.5296931284
 H        -8.1275837997        1.3746193018       -2.0052829941
 H        -4.7105272795        4.0458847824        0.0928792843
 H        -3.2058412583        3.8310718794       -0.7181878224
 H        -3.9896675650        2.4042966575        0.0932974924
 H        -6.5160983311        3.8037111748       -3.0999525871
 H        -6.2796090551        4.5395188213       -1.5102208105
 H        -5.0122589177        4.6997730788       -2.6919060477
 H        -9.3314152494        1.8059361953       -0.0143859817
 H        -7.9908118344        0.7519913050        0.3396993749
 H        -5.8227350438        2.1029182605        3.3796723079
 H        -6.7270106858        1.8976705723        4.8701681984
 H        -7.5058790067        3.8008057825        4.2488754864
 H        -9.0079634867        4.6519211113        3.5581799804
 H        -7.4897026262        4.5938707205        2.6106421431
 H       -10.4447031174        3.2187462545        1.9068726997
 H       -10.0580723164        1.4324631812        1.8540337528
 H       -10.3037286830        2.2768104540        3.4438185311
 H        -6.1201087748       -0.7119222168        4.5773835857
 H        -4.7730051282        0.4159530033        4.9375721043
 H        -1.5296047185       -0.8686777361        4.4865949646
 H        -1.3806559182       -2.6552929980        4.1231562104
 H        -5.2846044292       -2.7930611395        4.3548216435
 H        -3.8838689325       -1.8990309305        4.9867456395
 H        -3.7322848045       -3.4410161056        4.1278645256
 H        -5.5307606739       -2.6303962123        1.3858372391
 H        -3.8832099592       -2.5568846524        0.7645717580
 H        -4.3276527407       -3.8299990570        1.9331769206
 H         0.6050823907       -2.1064648209        2.8680374216
 H        -0.1425794147       -0.7155298260        2.1106788607
 H         3.0296972981        0.1712702256        1.4590962148
 H         3.5557356136        1.1934189481        2.8760214320
 H         2.1087898010        1.7873882152        4.4275191686
 H         3.6287380043        1.2996755456        5.1741642222
 H         1.9455806884        1.2334816706        5.9957055439
 H         3.1423092796       -1.9164759203        5.7646693156
 H         1.6426950968       -1.2546921062        6.5270966271
 H         1.6493136673       -2.3932489974        5.3109297474
 H         5.4429661120       -0.0138378489        1.1272139943
 H         5.3223721829       -1.1988533815        2.3933422808
 H         6.8248502214        2.1599198149        0.9848424056
 H         8.4432725332        2.1338958272        0.3531136545
 H         8.2494912750        2.4751421484        2.8820056639
 H         9.5087760980        1.3963598916        3.1876663908
 H         8.2059699724        1.6337465509        4.3037960073
 H         8.9133748943       -1.2253782072        2.8571095383
 H         7.8592866484       -1.0402980969        4.4276682542
 H         7.2631645655       -1.8147363121        3.0006746628
 H         7.5481873185        0.4933756617       -1.4385869005
 H         6.0708512964        0.8782802432       -1.0920610498
 H         3.3478994584        1.1382504179       -4.7020442763
 H         4.9471018446        1.5113252532       -5.5982087167
 H         6.1206685795        2.9705831859       -5.3176504506
 H         7.6397379905        3.4241495733       -4.6165990903
 H         6.1632038222        3.9654038565       -3.8552741097
 H         7.2518370568       -0.0760910548       -3.5010043622
 H         7.4079202639        0.8874966371       -5.0399575604
 H         8.6615581915        1.1190263710       -3.8579397771
 H         5.6412531861       -0.8024249340       -4.3081948435
 H         4.6458687699       -0.7889750323       -5.8638275613
 H         1.0565067967       -3.0733226511       -4.3235860093
 H         1.7702252657       -4.6204325953       -3.8522620379
 H         4.6937857726       -3.5691369997       -4.6947344008
 H         4.4646560524       -4.5589553957       -3.2331661597
 H         5.6577557812       -3.3042125727       -3.3099771761
 H         4.5967641586       -2.5001431179       -0.8500945801
 H         5.2651634531       -1.1670516281       -1.9641514497
 H         3.5638686494       -1.1715365248       -1.3974849968
 H        -0.1189537158       -4.9724259696       -2.2819764229
 H        -0.1780318616       -3.3833342843       -1.7586239942
 H        -2.6980729831       -0.6128772064       -3.3769494917
 H        -3.0460728145       -1.6764074907       -4.7516519676
 H        -4.4140149279       -1.1874419818       -3.6421723115
 H        -3.6656059370       -3.6023399341       -5.0476903453
 H        -4.8023980294       -4.4277933544       -3.9276947922
 H        -3.5126044329       -5.3452669097       -4.8345560945
 H        -2.3800130685       -5.8806507554       -2.0929897889
 H        -2.0559249978       -4.5320093385       -1.0982234510
 H        -3.7857193049       -4.9931547811       -1.4392811796
 Na       -3.7986466339       -0.1036032484       -0.2334988192
