155

 C        -4.0770441993        2.8289276492       -4.1892131846
 C        -4.0885299073        2.2782217452       -2.6873507782
 C        -5.0428893932        2.8795802823       -1.5157249488
 C        -6.0959011634        1.8160950405       -1.1799948169
 C        -7.5708112709        1.9770601994       -1.4129022598
 C        -4.1274519462        3.1549626360       -0.3760312597
 C        -5.7446726567        4.1074982457       -1.9709262563
 O        -3.3474064654        1.3676674839       -2.5281066935
 O        -5.7032214264        0.8127789466       -0.5982740396
 C        -8.2083582468        1.5892911320       -0.0713982577
 C        -7.8106139999        2.5558656554        0.9711169003
 C        -8.3237180670        2.2482693592        2.4056593729
 C        -7.4032035689        1.0458096234        2.9134948603
 C        -6.1574045419        1.4106584214        3.8612105566
 O        -7.3142892300        3.6680267897        0.7154270485
 O        -7.7038563505       -0.1221822587        2.5787510608
 C        -8.1832343763        3.5572519895        3.1569017294
 C        -9.7621687103        1.6079823252        2.4333172911
 C        -5.1880104123        0.2838960622        4.1540861846
 C        -4.7004891482       -0.3273429708        2.7585894524
 C        -3.9620840572       -1.7644116977        2.7905275862
 C        -2.5051223854       -1.4527009719        2.4312033340
 C        -1.4493604211       -1.9569542136        3.4361403928
 C        -4.1052704415       -2.4677410611        4.2040431839
 C        -4.8241800905       -2.7237546834        1.8020619505
 O        -4.8180512989        0.2034169026        1.6558387633
 O        -2.1075922721       -0.8412584626        1.4423017366
 C        -0.0477670246       -1.3530586335        3.2432955954
 C         0.3924724900       -0.2140980601        4.1247504695
 C         1.8623390663       -0.2213326805        4.8058048253
 C         2.7888275316       -0.5322791632        3.5414541402
 C         3.3463351313        0.6225288080        2.6941353166
 O        -0.3976927886        0.6131478818        4.4632104590
 O         2.9185668296       -1.6825105881        3.1842024092
 C         2.3979732705        0.9533929998        5.6067573974
 C         1.7958088220       -1.4714077476        5.8078398001
 C         4.7486954325        0.3971429376        2.1154589283
 C         5.9128616972        0.6251647864        3.2224858997
 C         7.5115664975        0.3160064222        2.9233303653
 C         7.8846377990        0.2222388309        1.3589812614
 C         7.7606081602        1.5230871591        0.3958391434
 C         8.3404919310        1.4260937999        3.5331941806
 C         7.9826397081       -1.0762432937        3.4780878835
 O         5.7058774446        1.3371870388        4.1137936468
 O         8.2803098566       -0.8008042132        0.8304477863
 C         7.3995578072        1.0886866122       -0.9921493345
 C         7.4374007096        2.3033529877       -1.9992861201
 C         6.8180650570        2.1783382923       -3.5373579935
 C         5.2570657798        1.6509351154       -3.5226274874
 C         4.6265149460        1.0251203502       -4.8160721522
 O         7.7067698705        3.4237316282       -1.5829983871
 O         4.5696967433        1.8091538734       -2.5140999363
 C         6.6489284300        3.6176444159       -4.1768312434
 C         7.7284740066        1.2769907847       -4.3707697076
 C         4.6644324476       -0.5221935672       -4.6850228127
 C         3.3561673462       -1.1999290817       -4.0363335054
 C         3.4902365542       -2.2971976416       -2.9403374629
 C         2.1417212246       -2.9084499986       -2.3640351470
 C         1.0202835070       -3.4633980969       -3.4104617838
 C         4.2746108526       -3.5241889268       -3.4735722698
 C         4.1668288477       -1.6766490961       -1.6080531001
 O         2.2769569734       -0.8393589601       -4.4515600169
 O         1.9008937248       -3.1301134597       -1.1943627271
 C        -0.1829847558       -3.9909953085       -2.7736051785
 C        -1.3313997150       -4.0426581544       -3.7996362284
 C        -2.8031864297       -4.0754943886       -3.1726355858
 C        -3.1735536908       -2.5869277634       -2.8308124694
 C        -2.9759612460       -1.6385067850       -3.9814431416
 O        -1.1385663982       -3.9934925809       -4.9651587314
 O        -3.5396155783       -2.2326007840       -1.7146916204
 C        -3.8327322013       -4.6042485093       -4.1668754750
 C        -2.6986436177       -4.8053073873       -1.8940509409
 H        -3.5212038775        3.7791900473       -4.3165489228
 H        -3.5067459304        2.0275548306       -4.6974364021
 H        -5.0304420138        3.0005436552       -4.5841685038
 H        -7.9456886363        2.8943258236       -1.8379826052
 H        -7.9039500343        1.2378835352       -2.1952975870
 H        -4.5623949626        3.1620526846        0.6013524162
 H        -3.6520275694        4.1290363804       -0.4881125290
 H        -3.3945725947        2.3135361873       -0.3655740845
 H        -6.2607277757        4.0618461889       -2.9015326271
 H        -6.3971168643        4.4571509574       -1.1569520623
 H        -4.9162856216        4.7695023603       -2.1850528259
 H        -9.2591234915        1.4747225247       -0.1845105682
 H        -7.8504142595        0.6243515534        0.2011477962
 H        -5.5636501539        2.0434989410        3.1408226359
 H        -6.4582885990        2.0445012100        4.6798429302
 H        -7.1965148811        3.8242855162        3.1838301543
 H        -8.4834117116        3.6061496667        4.2059852598
 H        -8.7699524037        4.3289068642        2.4943084478
 H       -10.5407775145        2.3541407283        2.2292531544
 H        -9.8507647516        0.8117296685        1.6503101221
 H        -9.8819393753        1.3736405605        3.4450031033
 H        -5.5938154049       -0.5302292973        4.7666838175
 H        -4.2114224481        0.7817703897        4.5858383654
 H        -1.8388178104       -1.6021697004        4.3959193934
 H        -1.4163218122       -3.0384211374        3.5092012113
 H        -5.1547828337       -2.6537769454        4.4748756842
 H        -3.6179978164       -1.9619691406        5.0374401488
 H        -3.7623652255       -3.5033555591        4.1171682669
 H        -5.1911266394       -3.5939406564        2.3823417733
 H        -5.5656062267       -2.1415631878        1.3505011953
 H        -4.2702643692       -3.1671946055        0.9684189669
 H         0.6239441680       -2.1820955171        3.2665589585
 H        -0.0833472922       -1.0413577079        2.1661210417
 H         2.6949149863        0.6334673875        1.7411911077
 H         3.1283301396        1.4394084882        3.2757599037
 H         2.6424861946        1.7883462867        4.9909381470
 H         3.3305131503        0.6573000805        6.2094516976
 H         1.7045949662        1.2471073474        6.4047403794
 H         2.5075596095       -1.2263830902        6.6967092759
 H         0.8637728408       -1.7983976076        6.3565950428
 H         2.3054553749       -2.4113903757        5.4605976470
 H         5.1217905957        1.0815662007        1.3455728339
 H         4.8478697800       -0.5978000590        1.7028170437
 H         6.9858573284        2.1911482492        0.8922173203
 H         8.7379862388        2.0846699935        0.4594464380
 H         8.1509364885        2.3592682742        2.9659310471
 H         9.4684765715        1.3826422077        3.4635329602
 H         8.1112400334        1.7890941761        4.5345441753
 H         9.0643014566       -1.0436252627        3.4371830266
 H         7.6861929846       -1.1788433441        4.5071745508
 H         7.5756452193       -1.7877415229        2.7261751863
 H         7.8462830896        0.2151580294       -1.3200408334
 H         6.3375791704        0.8589569468       -0.9529851845
 H         3.6327776780        1.4324736803       -4.7752314055
 H         5.3060560734        1.3322325741       -5.6313886990
 H         6.5557950417        3.7428754205       -5.2685877651
 H         7.5985643545        4.1598468863       -4.0080639072
 H         5.8960940534        4.1882430289       -3.5872954906
 H         8.0999810366        0.4286315575       -3.7082931477
 H         7.1184438048        0.8507417073       -5.1673113281
 H         8.5954175167        1.8180585164       -4.7983257868
 H         5.7474928404       -0.7877177020       -4.3826840225
 H         4.6996437196       -1.0012128720       -5.6819525427
 H         0.7684371916       -2.5965683902       -4.1015982414
 H         1.5012479886       -4.1916546518       -4.1940247829
 H         3.6840353676       -4.3421374621       -3.9375050742
 H         4.9572113421       -3.8649657398       -2.6932032611
 H         4.9361682226       -3.1552787635       -4.1964057687
 H         4.0728357427       -2.5399671587       -0.9219871277
 H         5.2041016694       -1.5257823417       -1.7287751475
 H         3.7678357809       -0.8193167352       -1.1535064398
 H         0.0523187738       -4.8754886313       -2.1833749777
 H        -0.4720691028       -3.4189520764       -1.8419264947
 H        -3.2742037590       -0.6900812862       -3.5754979163
 H        -1.9359753316       -1.6403707302       -4.4835052470
 H        -3.7957644360       -2.0283437902       -4.7053210699
 H        -3.6404224477       -4.3044804183       -5.1532790470
 H        -4.8123334802       -4.3741644044       -3.8680403722
 H        -3.7839329366       -5.7326334950       -4.0434316188
 H        -2.6142950485       -5.8624009513       -2.1987397223
 H        -1.9429529693       -4.4909027280       -1.1715350615
 H        -3.6207970671       -4.8310527605       -1.3683637509
 Na       -3.2999740173       -0.1623417384       -0.4406294198
