155

 C        -2.8914173054        3.0660879324       -3.9385130394
 C        -3.3727778719        2.4010627435       -2.6903930669
 C        -4.7949665328        2.8934612358       -2.0641251865
 C        -5.6548399770        1.6516608210       -1.7045250749
 C        -7.0722216359        2.0012404589       -1.3798764402
 C        -4.4621813949        3.6343475271       -0.6722126173
 C        -5.5428314625        3.8336067291       -3.0280128961
 O        -2.6559950026        1.5999262383       -2.0702267830
 O        -5.2219446274        0.5045385348       -1.8546604004
 C        -7.6857677872        1.1237876569       -0.3033620983
 C        -7.5385228538        1.6294793230        1.1647006422
 C        -8.0171148882        0.6097567429        2.3464021614
 C        -6.8014997797        0.0075769041        3.2023502042
 C        -5.6658799204        1.0269443659        3.4941517450
 O        -7.2354677476        2.7854834142        1.3480387462
 O        -6.7167770260       -1.1583708361        3.5037120931
 C        -8.7347390884        1.6846216656        3.3438221256
 C        -8.9965487040       -0.4263194115        1.9310983915
 C        -4.1803898820        0.4251877255        3.7104906345
 C        -3.8835075903       -0.4490458033        2.4768598217
 C        -3.3156416891       -1.8844353121        2.4718186534
 C        -1.9472343612       -1.8189614921        1.6390461695
 C        -0.6441941146       -2.6991773099        2.0791617217
 C        -3.2449740514       -2.6243659892        3.9045250381
 C        -4.3142964706       -2.8252968942        1.6675184503
 O        -4.3082153129        0.0364695324        1.4174184152
 O        -1.8063707857       -1.1241505420        0.6575163432
 C         0.4086979928       -1.8806551353        2.8878360509
 C        -0.1184003935       -0.6429828513        3.6848951649
 C         0.8665343277       -0.0277153739        4.7137838237
 C         2.4189998516        0.0258625207        3.9762278435
 C         2.8600841858        1.4561096879        3.4227766897
 O        -1.3246538342       -0.3521760162        3.7354652240
 O         3.0661157390       -0.9820007265        4.0866822877
 C         0.3624022703        1.3591689484        5.0737701756
 C         0.9409106803       -0.9987995948        5.8941474163
 C         4.0482308663        1.3394394452        2.5021373073
 C         5.4736283373        1.6261109199        3.1862555263
 C         6.6318001620        0.6049935753        2.8314011215
 C         6.8994464889        0.7305522956        1.2658659517
 C         8.1865452877        1.2664583494        0.6359649557
 C         7.8990790284        0.9192941455        3.7175780775
 C         6.0461356030       -0.8836392413        3.0285824953
 O         5.5419424251        2.6109044128        3.8992372814
 O         6.0539410607        0.3039251826        0.5338943639
 C         8.0667899429        1.2909531570       -0.8667240030
 C         7.2281609652        2.4175937231       -1.4396884212
 C         6.9474906216        2.3780141303       -2.9396144006
 C         5.6128641300        1.4083907005       -2.9756467079
 C         5.0584484339        0.9093517432       -4.2785218455
 O         6.7651602015        3.3088017577       -0.8149817858
 O         5.2013574616        1.0164518607       -1.9433178542
 C         6.6441320634        3.6967987124       -3.5201705401
 C         8.0668435789        1.6067320562       -3.7594124461
 C         4.5250060944       -0.4886575823       -4.4478945006
 C         3.3139127707       -0.7373631531       -3.4562670413
 C         3.2315096940       -1.9661409929       -2.5298593637
 C         1.8915240195       -2.1633871619       -1.9187147452
 C         0.6049210042       -2.0960731320       -2.8644383837
 C         3.4660814158       -3.3390105421       -3.3324980882
 C         4.4629893780       -1.7037544324       -1.5490285135
 O         2.3360178770       -0.0524769066       -3.5787218675
 O         1.6595954805       -2.5322407231       -0.7851926130
 C        -0.2959532512       -3.2626276068       -2.5831451756
 C        -1.2288739778       -3.7846711386       -3.7032369353
 C        -2.8034540913       -3.9286504691       -3.3066240677
 C        -3.2663757628       -2.3915620615       -3.0643586622
 C        -3.2788148307       -1.2949189584       -4.1946927298
 O        -0.8412802786       -4.0943195686       -4.8008227793
 O        -3.5116834676       -2.0876073496       -1.9009782325
 C        -3.4782384852       -4.3742652259       -4.5715058960
 C        -3.0843663730       -4.8045139629       -2.1290702927
 H        -2.8502002184        4.1286748360       -3.6110895288
 H        -1.8920894278        2.6894971869       -4.2987712381
 H        -3.5825496678        3.1004763069       -4.7031749042
 H        -7.1365466485        3.0167697026       -0.9388632594
 H        -7.6912434832        1.7839321988       -2.2648281042
 H        -5.3303952549        3.9060080362       -0.0430241384
 H        -3.7530486740        4.4692062048       -0.7692965631
 H        -3.9839130816        2.8846021494        0.0359789895
 H        -5.6996052990        3.4475770960       -4.0171080285
 H        -6.5272510820        4.0581065626       -2.5875957877
 H        -5.0883884105        4.8321490892       -3.0691963830
 H        -8.7257055939        0.9557472942       -0.5483588434
 H        -7.2314732372        0.0542884357       -0.3155046613
 H        -5.6073936667        1.8617735448        2.7205928183
 H        -5.8170539470        1.4905543683        4.4550368095
 H        -9.8930284814        1.7107910815        3.1498734078
 H        -8.4641939637        2.7066785360        3.2365333021
 H        -8.7683339557        1.4885724839        4.3917348100
 H        -9.6121269002       -0.2926226199        1.0285443435
 H        -8.4921920894       -1.4261336442        1.6745028796
 H        -9.5661874114       -0.7426428736        2.7540856729
 H        -4.1416692581       -0.1997290201        4.6506329615
 H        -3.4210673963        1.2731110124        3.7321899574
 H        -1.0178046710       -3.4613083607        2.6769567829
 H        -0.1590175359       -2.9815869533        1.1302254173
 H        -4.1682872475       -2.3096721291        4.4323468021
 H        -2.4281964565       -2.3997054161        4.4930429286
 H        -3.2434638982       -3.6902046712        3.7244147195
 H        -3.6838047454       -3.6371258251        1.2187914901
 H        -5.1043611524       -3.1152907256        2.3006990976
 H        -4.7564320913       -2.3008630199        0.8089817273
 H         1.0082002862       -2.4570913195        3.5135765443
 H         1.1352316458       -1.6312390033        2.0425583916
 H         1.9472417499        1.8992445861        3.0049877549
 H         3.1980950663        2.0788983951        4.2745934568
 H         0.5005162586        1.9881349798        4.2152062589
 H         0.9395230522        1.8900784855        5.8941241968
 H        -0.7064206694        1.3996964985        5.2544754105
 H         1.6904998228       -0.5629348119        6.4266199204
 H         0.0775904279       -1.0299495496        6.5836757716
 H         1.1931809271       -1.9606801842        5.4612382360
 H         3.8903867345        2.1869736558        1.8260985367
 H         3.9737432547        0.4213973326        1.9364617052
 H         8.4119167785        2.3109048142        1.0399961111
 H         9.0326309376        0.6509610616        0.9337325896
 H         8.2246533785        2.0018801600        3.7222703134
 H         8.6080334788        0.2229191652        3.4344855944
 H         7.6272475161        0.7267194655        4.7407300754
 H         6.8879188582       -1.4809595691        2.6927406131
 H         6.0362084655       -1.1196791383        4.0673590327
 H         5.0932279245       -0.9519351934        2.4360541913
 H         9.1098742595        1.2153260139       -1.3052071615
 H         7.5851308162        0.3964646716       -1.3304910106
 H         4.1526969334        1.4771709692       -4.4308372172
 H         5.7150453956        1.1499568560       -5.0773298078
 H         6.4227627904        3.7819864523       -4.5811174400
 H         7.4086649643        4.4467675560       -3.3100508818
 H         5.7787987148        4.0614756150       -3.0068257022
 H         9.0651505708        2.1380369202       -3.5892537264
 H         8.1987762856        0.5648169867       -3.4729440229
 H         7.9198288855        1.6958461619       -4.8683696978
 H         5.2932395482       -1.2708322100       -4.0255596279
 H         4.1275247660       -0.6623205754       -5.4397552802
 H         0.1285400616       -1.0565309619       -2.6423191178
 H         0.9978040082       -2.0448626784       -3.9355939293
 H         2.6571057857       -3.5595874772       -4.0530483982
 H         3.5531378262       -4.2006588770       -2.6408308206
 H         4.3991736809       -3.2628092626       -3.8216665456
 H         4.4831474872       -2.4893198787       -0.7622102241
 H         5.3318640713       -1.7958591738       -2.2075863145
 H         4.5640273226       -0.6501123450       -1.0512629789
 H         0.3093361413       -4.0433894545       -2.2628296799
 H        -0.9435334844       -3.0807694133       -1.6391344559
 H        -3.9550496294       -1.5108248771       -4.9982790691
 H        -3.6432022635       -0.4185838290       -3.8158600429
 H        -2.3084106550       -1.2017527961       -4.5995024635
 H        -3.3333348810       -3.6537955681       -5.3802024712
 H        -4.5534965744       -4.4862998389       -4.4204603805
 H        -3.1325885154       -5.3759073908       -4.9825554376
 H        -2.4346501907       -5.6755123014       -2.2965668949
 H        -3.0615153711       -4.1771794217       -1.1968967684
 H        -4.0925602458       -5.2166837399       -2.2236077516
 Na       -3.1820971992       -0.1646031936       -0.9244166955
