155

 C        -3.5938695180        3.2101456102       -3.4626594557
 C        -3.4721786398        2.0869101935       -2.4622940523
 C        -3.9923603444        2.3798048482       -1.0069421425
 C        -5.4247947054        1.6055163252       -1.0183026265
 C        -6.6440693071        2.3661883517       -0.2862388973
 C        -3.1133272879        1.6491741571        0.1362196058
 C        -4.0579470824        3.9230606838       -0.6466624820
 O        -3.1271831175        0.9997972173       -2.8359435711
 O        -5.3687945647        0.4064940228       -1.1897710514
 C        -7.7061937916        1.3901697891        0.2753306061
 C        -7.8908038223        1.3168469901        1.7998454585
 C        -8.5152116017        0.0140870668        2.4068710688
 C        -7.4066253929       -1.0931462647        2.5500068407
 C        -6.0347497925       -0.7105552735        2.8970182800
 O        -7.6219263881        2.2967423393        2.5076544847
 O        -7.8838429177       -2.2065879150        2.4088285568
 C        -8.9836952339        0.3407689465        3.8623053925
 C        -9.7464050005       -0.4214858495        1.5724739306
 C        -5.0158358849       -1.7563789788        2.8696543218
 C        -4.3242581523       -1.9130945402        1.5432578538
 C        -2.9922141268       -2.8650238220        1.4031424567
 C        -1.8217030216       -1.8728188747        1.0805058866
 C        -0.4316237567       -2.0142611960        1.6160945473
 C        -2.7334117060       -3.5341419312        2.7272848991
 C        -3.1374233807       -3.9930858578        0.3386367676
 O        -4.8451473174       -1.3770659839        0.6065757085
 O        -1.9877395229       -0.9975457694        0.2472641033
 C         0.2960233467       -0.7445963801        1.9646945082
 C        -0.3732231380        0.2668083667        2.9435009856
 C         0.4828790120        1.4020301667        3.6569015718
 C         1.9346411915        1.1814211833        3.2401296921
 C         2.7808374652        2.2331094401        2.4955705349
 O        -1.5873314949        0.4043613911        2.9815328655
 O         2.4610540450        0.1518218411        3.6057890820
 C        -0.0574777488        2.8552611214        3.3380903034
 C         0.3987918851        1.2511464525        5.2709103174
 C         4.3321627696        1.7786546100        2.4908348140
 C         5.0880646865        2.2440957014        3.7968250756
 C         6.6457042016        1.8404019295        3.9087630814
 C         7.2088554092        1.8077112880        2.4157834387
 C         7.8171817397        3.0819441670        1.7504468539
 C         7.3345597921        2.8687502983        4.7979734179
 C         6.6231675966        0.4093716517        4.4403563307
 O         4.4731752706        2.7089188726        4.7338393120
 O         7.4310601125        0.7652309598        1.8586590636
 C         7.8799125496        2.8918391567        0.1641778335
 C         6.5860861711        3.1411981650       -0.5421954583
 C         6.5387014856        2.9761439862       -2.0221444542
 C         6.5022762574        1.2953205309       -2.2664872411
 C         5.1636980280        0.8694059463       -2.9871986472
 O         5.5329812932        3.3563370511        0.0972125434
 O         7.3493147574        0.6325823597       -1.7818003585
 C         5.3066853486        3.8143034736       -2.5343643179
 C         7.8802514975        3.6097175059       -2.6527725770
 C         5.0803604804       -0.7591487158       -3.1502933252
 C         3.6116728896       -1.2518405999       -2.5979644892
 C         3.4225933202       -2.7558590998       -2.0522364445
 C         1.8128192574       -3.0379700651       -2.0311846347
 C         1.1561366436       -2.9538962107       -3.3889415403
 C         4.1745998162       -3.7912128801       -2.8283564871
 C         3.8811191756       -2.5585308960       -0.5061344489
 O         2.5961751327       -0.5766327791       -2.5766552332
 O         1.2123099694       -3.3604917261       -1.0346092700
 C        -0.0189572397       -3.8798269351       -3.6117224880
 C        -0.7066638843       -3.6026791376       -4.8808885452
 C        -2.3618338390       -3.9061006997       -4.8528290783
 C        -2.8925546006       -2.5907119096       -4.1472820065
 C        -3.1289320002       -1.3649135736       -4.9755981990
 O        -0.1841800699       -3.2802772948       -5.9254207540
 O        -2.7948456309       -2.5793473969       -2.9172677446
 C        -2.7937639486       -4.2243077240       -6.3087939916
 C        -2.6908085906       -5.1381742534       -3.9356773069
 H        -3.9348349875        4.1320530990       -3.0781169084
 H        -2.6444535544        3.2623001493       -3.9625462357
 H        -4.3111674777        2.7774786294       -4.1801836801
 H        -6.1481756076        3.0586692391        0.4658821226
 H        -7.1524115199        2.8647035493       -1.1152593204
 H        -2.9486271645        0.6234891215       -0.1229902386
 H        -3.7608015187        1.7235622283        0.9994949416
 H        -2.2321725101        2.2682535177        0.1995137655
 H        -4.8539788433        4.3487392111       -1.2108808741
 H        -4.1097396478        4.2022313427        0.4051857776
 H        -3.1210763372        4.3821117505       -0.9920668625
 H        -8.5771302205        1.7922979439       -0.2289551771
 H        -7.6246849636        0.3425566904       -0.1435420140
 H        -5.7206687187        0.1819342898        2.2963749421
 H        -6.1885015936       -0.4365551555        3.9376240163
 H        -9.0144260731        1.3777506006        3.9702497784
 H        -8.3716671874       -0.1344574917        4.5349176792
 H       -10.0709309059        0.0773047551        3.8321625362
 H       -10.7478387777        0.0689232610        1.8270920606
 H        -9.5613747498       -0.0193259897        0.5924070950
 H        -9.8859323138       -1.5601482190        1.5967817928
 H        -5.5893625773       -2.7163503232        3.0833188539
 H        -4.2275050488       -1.4945561642        3.6276695986
 H        -0.4320862863       -2.8032556037        2.3775668140
 H         0.1742312678       -2.5019581555        0.7977110635
 H        -3.6080960451       -4.0714407146        3.0700148002
 H        -2.5219680031       -2.7467912849        3.5111516206
 H        -1.8943402746       -4.2468528797        2.6537839296
 H        -2.4158558907       -4.8014213970        0.6161063112
 H        -4.1493551402       -4.3555245151        0.3873207196
 H        -3.0524679311       -3.6719235714       -0.6848484286
 H         1.2122742247       -1.0532731343        2.3356402125
 H         0.6484344480       -0.3395800732        0.9845608486
 H         2.4149752651        2.3268440861        1.4633160743
 H         2.7322477613        3.2135973660        3.0386459676
 H        -0.0217301380        3.0976450461        2.2628586648
 H         0.5481722879        3.5997303986        4.0279130192
 H        -1.1327406528        3.0097114131        3.6580412473
 H         1.3403789165        1.6451031391        5.4879309673
 H        -0.4241474731        1.8084660894        5.6789644285
 H         0.5306083728        0.1968737492        5.5069706040
 H         4.9913688267        2.2342820744        1.7173366649
 H         4.3850079848        0.6493174290        2.4933508627
 H         7.2886564480        4.0507038063        2.0444874240
 H         8.9364917605        3.1172347766        2.0902184414
 H         7.1356443565        3.8502906735        4.5465480640
 H         8.4257907220        2.6837280934        4.7938616591
 H         7.0295239506        2.7560208531        5.8105014130
 H         7.6151447951       -0.0346180450        4.2472631013
 H         6.3729268451        0.3492523842        5.5122920157
 H         5.7709539665       -0.1816574051        4.1942662030
 H         8.6788579490        3.5494791375       -0.2912090485
 H         8.2305421873        1.8261833600       -0.0727078038
 H         4.3577503251        1.2875497520       -2.3676107781
 H         5.1797974113        1.2715008899       -4.0032052065
 H         5.2623319292        3.7354346890       -3.6013052383
 H         5.6073245641        4.8772962951       -2.2636424508
 H         4.3223001549        3.6240523989       -2.0666465374
 H         7.9347548968        4.6507155568       -2.4573748247
 H         8.7380182830        3.0816760711       -2.2718891520
 H         7.9516665803        3.5100218210       -3.6834083501
 H         5.8381480800       -1.3384030410       -2.6214924183
 H         5.0760352357       -0.9944849269       -4.1829512925
 H         0.8642106391       -1.8751744813       -3.5841588739
 H         2.0497858938       -3.0320402405       -4.0934974836
 H         4.1950509862       -3.6195447612       -3.9222462947
 H         3.6994034920       -4.7495761728       -2.6290032635
 H         5.2195457361       -3.8467414010       -2.5180311044
 H         3.2577664541       -3.2102916708        0.1525330582
 H         4.8865570923       -2.8552676257       -0.4021859777
 H         3.6132136601       -1.5720077730       -0.0657987824
 H         0.3294575092       -4.9376535664       -3.6245906624
 H        -0.6438607438       -3.8069643939       -2.7756130484
 H        -4.0575374390       -0.9093949778       -4.7068618166
 H        -2.3331953079       -0.7864242209       -4.7860075424
 H        -3.0918515645       -1.6761151809       -5.9950959309
 H        -2.1562843997       -3.7022906175       -6.9137643322
 H        -3.9171033403       -4.2079091552       -6.4263188733
 H        -2.6080252740       -5.3356733892       -6.5029145599
 H        -1.9646982916       -5.9320483170       -3.9699489616
 H        -2.6291530132       -4.8579650454       -2.8974037567
 H        -3.6135167233       -5.6235157635       -4.1017752086
 Na       -3.6862510080       -0.9311967450       -1.5380580509
