155

 C        -3.0755795896        3.7395879739       -3.1673756910
 C        -3.6058159073        2.5001858009       -2.3482694886
 C        -4.7579159516        2.8476175778       -1.2047852214
 C        -5.8684995027        1.6535137826       -1.2221139557
 C        -7.2129165453        2.0589742643       -0.6655810330
 C        -4.0610677600        2.6700155800        0.1606346850
 C        -5.4212209750        4.2024595651       -1.3799883372
 O        -3.0777474261        1.4225791259       -2.3964770136
 O        -5.7580884672        0.5447000069       -1.7201193268
 C        -8.0701447546        0.9195672425       -0.0404868216
 C        -7.6413500793        0.7932729215        1.5611420640
 C        -8.3077156893       -0.4201115554        2.2974035952
 C        -7.1009294330       -1.5822309526        2.2843537299
 C        -6.1652215829       -1.6240514916        3.4299627315
 O        -6.7332309772        1.3638343228        2.0477183045
 O        -6.9945395892       -2.2345836248        1.2824093539
 C        -8.6214868626        0.0361903265        3.7415841451
 C        -9.4984357407       -1.0585406915        1.5664524101
 C        -4.9717821966       -2.4035197058        2.9849162332
 C        -4.4146591625       -2.2197991320        1.5980689749
 C        -3.3152279444       -3.3544143459        1.0759179455
 C        -2.0638511427       -2.5966885221        0.9001474430
 C        -0.8112326257       -3.1069443097        1.6803157585
 C        -3.2326908080       -4.5863969851        2.0308247170
 C        -3.8667567640       -3.8622684830       -0.2678328551
 O        -4.5805369176       -1.1683232201        1.0621590909
 O        -2.0225740675       -1.6581355412        0.1214019907
 C         0.1924936422       -2.0048044566        1.9205133421
 C        -0.4206330466       -0.8948753152        2.8527272024
 C         0.0718619955        0.6196830664        2.7394178028
 C         1.6809247215        0.7488185755        3.1562520311
 C         2.4160430529        1.8877520318        4.0001204391
 O        -1.3184460403       -1.2233817408        3.6223919596
 O         2.3872086574       -0.0878363074        2.7125453087
 C         0.0692462831        1.1992499277        1.2646385878
 C        -0.9454838901        1.4427508090        3.6553552318
 C         3.8792480335        1.9267419526        3.6706501873
 C         4.7310836815        3.0928056985        4.2040471385
 C         6.3099819624        2.8960132471        4.3276848968
 C         6.9834668834        2.5974337149        2.8921144075
 C         7.4426044154        3.6726793393        1.8937584532
 C         6.9389937588        4.2368064458        4.9191315991
 C         6.6017422899        1.6642421740        5.2574676802
 O         4.2018856579        4.1750283311        4.4917853915
 O         7.0958869884        1.4435806113        2.5915455848
 C         7.7648636820        3.0804920254        0.5441297600
 C         6.6247599728        3.4327338220       -0.5429351443
 C         6.8526433260        2.9917071521       -2.0152811622
 C         6.4795785288        1.4857226003       -2.2426295186
 C         5.0431187080        0.8499084346       -1.9531630335
 O         5.7419443326        4.1644301813       -0.1957710564
 O         7.2922441885        0.8250821525       -2.7998827931
 C         5.8875239278        3.9123939332       -2.8618604805
 C         8.3053496842        3.1922372516       -2.5055783666
 C         5.0869331242       -0.5210796231       -1.2574563996
 C         3.8855806437       -1.3707642544       -1.6673238566
 C         3.9481004129       -2.9030714629       -1.9087582997
 C         2.4776549801       -3.5653107666       -2.0741745636
 C         1.7912943866       -3.3668274094       -3.5419887134
 C         4.6508228706       -3.0609102570       -3.2998665399
 C         4.6429366334       -3.6424610651       -0.7566270951
 O         2.9012720013       -0.7172927660       -2.0067242040
 O         2.0843708548       -4.3056837584       -1.1816228213
 C         0.2308042885       -3.7480519059       -3.4478523706
 C        -0.4973136880       -3.2801621569       -4.7359798130
 C        -2.0949603984       -3.1100303143       -4.7265776227
 C        -2.4242914505       -1.8828669085       -3.9094112863
 C        -2.0371911006       -0.5385249352       -4.5424998406
 O         0.0377465275       -3.0458695770       -5.8200815301
 O        -2.8856154144       -2.0207015907       -2.7801157677
 C        -2.6447091693       -3.0166404733       -6.2521474325
 C        -2.7428145755       -4.3066225776       -3.9971805797
 H        -2.3347881330        3.3611238794       -3.8901709851
 H        -3.9329914391        4.2149729787       -3.6092782348
 H        -2.5869560753        4.3574534993       -2.4467837862
 H        -7.0987881917        2.8184671778        0.1523603941
 H        -7.8317040948        2.6122085030       -1.3956823748
 H        -3.4499887960        1.7695824226        0.0931937363
 H        -4.7929109419        2.5006342275        0.9518117401
 H        -3.3766893256        3.5139444039        0.3399603633
 H        -6.0736002822        4.3687328091       -2.2590324414
 H        -6.0303631082        4.3879874588       -0.5043701744
 H        -4.6720334275        4.9746669423       -1.4040427732
 H        -9.0977901069        1.1674908892       -0.2213421052
 H        -7.9113732985       -0.0557497105       -0.5412267424
 H        -5.8458501200       -0.6377555080        3.8766238643
 H        -6.4813333664       -2.1867485627        4.3130568407
 H        -7.6986977454        0.1973959192        4.2586212708
 H        -9.1666560852       -0.6751556098        4.4416230777
 H        -8.9877221494        1.1174505126        3.8457895419
 H       -10.2535336072       -0.2823478733        1.3146193940
 H        -9.1597991105       -1.2829450743        0.5186045102
 H       -10.0846003182       -1.9635285102        1.9964706781
 H        -5.1291984256       -3.4628508607        3.0771957951
 H        -4.0628193046       -2.1591710788        3.6308817641
 H        -1.2101692185       -3.5204518406        2.6564323961
 H        -0.4328628546       -3.8952852747        1.0973379653
 H        -4.1537893671       -5.1918271070        1.9592714067
 H        -3.0289140622       -4.2336149002        3.0173297580
 H        -2.4655076030       -5.3219624598        1.7363670615
 H        -3.9359336396       -3.1146367547       -1.0107628833
 H        -3.2157837601       -4.6853731751       -0.6613175140
 H        -4.8379012461       -4.3694015101       -0.0659567140
 H         1.1305640618       -2.4826587324        2.2187044600
 H         0.3555144797       -1.6503122425        0.8644575719
 H         1.8426054014        2.8171019862        3.8587898893
 H         2.3532144974        1.7759795465        5.0381556522
 H         0.9298196415        0.6094453953        0.7491377434
 H         0.3933109272        2.2484997957        1.4257283578
 H        -0.8212900622        1.1819622309        0.5573188421
 H        -0.5996335258        2.5024760092        3.9589763957
 H        -1.8010497133        1.3982240847        2.9750746727
 H        -1.0711027447        1.0556926467        4.6752777981
 H         4.0233055055        2.0340336152        2.5817095275
 H         4.3651305973        0.9624980714        3.8966112934
 H         6.6842359378        4.3834944982        1.7982469674
 H         8.1944914098        4.3145013010        2.3337449397
 H         6.9392350842        5.0097192001        4.1714940143
 H         7.9063401851        4.0775272700        5.2639694845
 H         6.3786817783        4.6458308243        5.7908842055
 H         7.6462184915        1.4039701865        5.2467052562
 H         6.2641481598        1.6031004349        6.2705322448
 H         6.0650580030        0.7756870570        4.8635982800
 H         8.7670912662        3.3842136492        0.1277569526
 H         7.7538361877        1.9586081354        0.7549910471
 H         4.6365835247        1.5903084625       -1.2122943731
 H         4.4852466002        0.9578036652       -2.9063551091
 H         5.8931050277        3.7099197457       -3.9561139554
 H         6.1282074112        4.9142870828       -2.6433370125
 H         4.8649690721        3.8019422690       -2.4846777209
 H         9.0074805723        2.8507747120       -1.7816806333
 H         8.4339994387        2.7442718562       -3.4681791133
 H         8.5378824187        4.2723860217       -2.5760062982
 H         5.0255252757       -0.3703922764       -0.2257027107
 H         5.9972750867       -1.1391117741       -1.4780787681
 H         1.9945078679       -2.3494810064       -3.8286487625
 H         2.3032595509       -3.9489877677       -4.2124072273
 H         4.0534735970       -2.4718753737       -4.0002915956
 H         4.6017428141       -4.0917017106       -3.6237596226
 H         5.6722147481       -2.6300420056       -3.3098524218
 H         4.8405483105       -4.6876306149       -1.0275215561
 H         5.6804851764       -3.2764480089       -0.4336696031
 H         3.9411821521       -3.8237691272        0.0185556133
 H         0.3025312253       -4.8602455733       -3.2301456051
 H        -0.2072726581       -3.4312453989       -2.5440685813
 H        -2.9181281179       -0.0957319096       -4.8598879512
 H        -1.5428745091        0.0733856057       -3.8020631616
 H        -1.3805834564       -0.6869544390       -5.3987265680
 H        -1.7838259539       -2.7279172729       -6.8442879940
 H        -3.4884879922       -2.3534193787       -6.3420886906
 H        -3.0233158736       -3.9512237615       -6.5690014471
 H        -2.3698861592       -5.2573487115       -4.3221862901
 H        -2.6840288544       -4.2063471147       -2.9300678091
 H        -3.7808067894       -4.2325217644       -4.3171032356
 Na       -3.7843241790       -0.5314648510       -1.0465823957
