155

 C        -3.0800653913        3.6647251713       -3.0877102919
 C        -3.7210539599        2.6032592385       -2.1500930022
 C        -4.9184622107        2.9218379862       -1.1796891815
 C        -6.0493897684        1.7797732400       -1.2623257422
 C        -7.4572855529        2.0770635443       -0.8314357472
 C        -4.3632193012        2.7373808001        0.2974588952
 C        -5.5123759059        4.3544841059       -1.4008422565
 O        -3.1619083477        1.5084799830       -2.1140138550
 O        -5.7046877557        0.6891569254       -1.6503893345
 C        -8.0984414651        0.8580258550       -0.2401933722
 C        -7.6367623391        0.6372286819        1.2675024980
 C        -8.2610770803       -0.5209876296        2.2108508890
 C        -7.2101072890       -1.6725327209        2.2655400854
 C        -6.1530663725       -1.4994013948        3.3734006856
 O        -6.7457624928        1.3099431879        1.8473562823
 O        -7.1864654246       -2.5966199556        1.4463069027
 C        -8.5419375643        0.1719614883        3.5356755984
 C        -9.5704391915       -1.0974801407        1.7149227219
 C        -4.9468359853       -2.5127887524        3.1408225071
 C        -4.3096694897       -2.3371466759        1.7253069737
 C        -3.2616109136       -3.4280716461        1.0595894551
 C        -1.8838023283       -2.7269532997        0.8174444973
 C        -0.5099984084       -3.1524261603        1.4936685640
 C        -3.2729666581       -4.6629428250        2.0001176073
 C        -4.0015409515       -3.7822854995       -0.2506922510
 O        -4.6347881982       -1.3030911457        1.1629973020
 O        -1.9069419201       -1.7633946446        0.0738776503
 C         0.3774436518       -1.9164547989        1.8220429229
 C        -0.2740579035       -0.9739148345        2.8069924722
 C         0.2933773060        0.5598765169        2.6840935677
 C         1.8105204439        0.5546922297        3.0516986741
 C         2.3059410062        1.7611073191        3.8469517479
 O        -1.1905102430       -1.1835631754        3.5631464858
 O         2.5597801108       -0.3595726759        2.6848630739
 C         0.1927064998        1.0160811460        1.1518739881
 C        -0.4742206800        1.5331114251        3.6150901233
 C         3.8437783781        1.8350554485        3.6460939089
 C         4.5278015973        3.1507372410        4.0706321466
 C         6.0403486842        2.9139506128        4.2988257765
 C         6.7013122795        2.4934636340        2.8805738704
 C         7.2393846247        3.6958462284        1.9524593901
 C         6.6472724634        4.3076996448        4.7494028648
 C         6.5198631773        1.8703254627        5.3554246865
 O         4.0331751182        4.2029751107        4.1832962712
 O         6.8825988612        1.2994424475        2.6345789522
 C         7.6679111162        3.2560974013        0.5246096977
 C         6.5604559701        3.5032123043       -0.4316060263
 C         6.9059840991        2.9733225443       -1.9071130610
 C         6.5959831420        1.4201686672       -2.0419431795
 C         5.1335618292        0.9513463036       -1.5814555415
 O         5.4363054445        3.9275683014       -0.1847228516
 O         7.4458512544        0.6817718272       -2.5115796644
 C         5.9127044000        3.6559716382       -2.8600160729
 C         8.3647201031        3.3993190368       -2.3388829719
 C         5.1150552384       -0.5906891432       -1.4137568453
 C         3.8278266301       -1.2473657185       -1.7500053978
 C         3.9680965241       -2.8244511664       -1.9552295174
 C         2.5886593577       -3.5444205971       -2.2157179521
 C         1.6392430181       -3.1987002254       -3.5095384543
 C         5.0238426473       -3.1414144023       -3.1385760186
 C         4.6438523784       -3.3137549563       -0.6602255268
 O         2.7969811586       -0.6724537748       -1.9636504134
 O         2.1158841978       -4.3147407565       -1.3853451592
 C         0.3325048715       -3.8681146176       -3.5583445634
 C        -0.4482723592       -3.3659949219       -4.7393254240
 C        -2.0075264326       -3.1225449210       -4.6080370027
 C        -2.3036617431       -1.8057676457       -3.8526175743
 C        -1.9350959046       -0.4646545248       -4.4971894294
 O         0.1129109910       -2.9537773430       -5.7025750165
 O        -2.9626223428       -1.7321460534       -2.8328185305
 C        -2.6199562656       -2.8679573242       -6.0298087210
 C        -2.8232181323       -4.3834072656       -4.0457634663
 H        -2.2983652940        3.1652911522       -3.6575525590
 H        -3.8742300045        4.1541828798       -3.7202777407
 H        -2.5959947039        4.3828760192       -2.3868410848
 H        -7.4111262302        2.7921340333       -0.0414448470
 H        -8.0532898379        2.6280695573       -1.5320383469
 H        -3.7542045817        1.7894266032        0.4170184858
 H        -5.2694352817        2.6379950855        0.9326140325
 H        -3.7020337544        3.5717297985        0.5820258525
 H        -6.1937434971        4.2825544907       -2.2411695463
 H        -6.1035361274        4.6921105612       -0.5695660680
 H        -4.7987689675        5.0848564692       -1.7493927524
 H        -9.2178429296        1.0018484131       -0.3169070249
 H        -7.7913299451       -0.0895639836       -0.7195643205
 H        -5.6630551864       -0.5513247096        3.5043087465
 H        -6.7244928467       -1.7430958478        4.3053051210
 H        -8.2603809882        1.2501311791        3.6614750947
 H        -8.2525917680       -0.2460778377        4.4974792773
 H        -9.5435368885        0.3163026037        3.5671439115
 H       -10.2798817218       -0.3398636462        1.4976851347
 H        -9.5037323959       -1.7225634532        0.8513237314
 H        -9.9251792886       -1.6830474060        2.4604829916
 H        -5.3539878728       -3.5324454532        3.0950026704
 H        -4.1576493908       -2.4728889222        3.8356604576
 H        -0.7995153492       -3.7009022225        2.3305253577
 H         0.0464553446       -3.8072659680        0.7345021223
 H        -4.2574056704       -5.0106409156        2.0772199990
 H        -2.7873555210       -4.3939985420        2.9643456153
 H        -2.8002388923       -5.5291321243        1.5927357106
 H        -4.7921095323       -3.0020923922       -0.3288577282
 H        -3.4171581011       -3.6508420371       -1.1398815378
 H        -4.4143488126       -4.7677893803       -0.2799548470
 H         1.3550669121       -2.2610448668        2.1962202505
 H         0.5953679810       -1.5097591880        0.8506477829
 H         1.8203423158        2.6844431387        3.5313765960
 H         1.8895821298        1.6913197126        4.9257642920
 H         0.7067383355        0.4690828079        0.4625235601
 H         0.3699491239        2.0778105307        1.0477581771
 H        -0.8326573580        0.8212262418        0.8994932991
 H        -0.1638037293        2.5287498220        3.3725620920
 H        -1.5973599704        1.5613996840        3.5140733076
 H         0.0768182601        1.5197000392        4.5187416069
 H         4.0226625018        1.7208350111        2.5878189872
 H         4.3435973691        1.0228730964        4.1257672545
 H         6.4835778586        4.5557478453        1.9472451818
 H         8.0774629227        4.2595838036        2.3744600381
 H         6.3270303381        5.2056335969        4.1052190992
 H         7.7828468285        4.2440703191        4.7507352975
 H         6.4360903618        4.4353947266        5.7862821036
 H         7.5948280645        1.7629220431        5.3025495581
 H         6.1976868587        2.1759562820        6.3589285134
 H         6.0591143710        0.9446353455        5.4353690668
 H         8.4789546680        3.8919238363        0.2421248297
 H         7.9629675900        2.2476155417        0.4698141551
 H         4.9016735917        1.4254649094       -0.6632938163
 H         4.5530964507        1.3743398892       -2.3989891907
 H         6.2688158724        3.4697489392       -3.8501338266
 H         5.7366917445        4.7510871600       -2.6065893768
 H         4.8856708184        3.2570776312       -2.8522531653
 H         9.1148110573        3.0266591616       -1.6599377672
 H         8.5968977803        3.0172186463       -3.3292452107
 H         8.4604293854        4.4405589528       -2.3956741136
 H         5.2429101149       -0.8127573366       -0.3034344049
 H         5.8349864867       -1.0572996197       -2.0846144932
 H         1.5168442397       -2.0839719430       -3.5730937007
 H         2.3312366119       -3.4199517103       -4.4400116607
 H         4.8628424297       -2.7089255478       -4.1085948671
 H         4.9364623596       -4.2121819513       -3.2461415295
 H         6.0090896983       -2.8916987111       -2.7476422460
 H         4.7288852978       -4.4020913457       -0.5718232783
 H         5.6547366602       -3.0182526965       -0.6517041631
 H         4.0543439142       -3.0991391839        0.2645847578
 H         0.4379808888       -4.9301654482       -3.5905570978
 H        -0.1441944141       -3.7451305699       -2.5417001952
 H        -2.7173890174       -0.2067733111       -5.3060344216
 H        -1.7190144332        0.3619432422       -3.7461911062
 H        -0.9506760510       -0.5879594761       -4.9953599691
 H        -1.9519687134       -2.1711708630       -6.6370962516
 H        -3.6371134149       -2.5782684332       -5.9070667979
 H        -2.7095550644       -3.7986263514       -6.6108677191
 H        -2.6855866376       -5.1002126768       -4.8601465431
 H        -2.4078629523       -4.7733211173       -3.1165112006
 H        -3.8492935779       -4.1366397914       -3.8292931497
 Na       -3.4594240705       -0.3684338543       -1.0803968832
