155

 C        -3.4895938561        3.7599804820       -2.9324304129
 C        -3.7782426294        2.8098723452       -1.7801950441
 C        -5.0787366749        2.9387043182       -0.9381260887
 C        -5.9860439287        1.6175902590       -1.0340739489
 C        -7.5072730350        1.7775752907       -1.1348013529
 C        -4.6447830190        3.0192098575        0.5395449940
 C        -5.9943197397        4.1589704841       -1.3726932175
 O        -3.0197055463        1.8923391060       -1.5512131760
 O        -5.4400378301        0.5436518311       -1.2025506658
 C        -8.1539124213        0.6618883030       -0.3738886350
 C        -7.6749269781        0.5126081765        1.0649327351
 C        -8.3014027267       -0.4969398000        1.9918508143
 C        -7.2808222008       -1.7533558001        2.3998331780
 C        -5.9104415709       -1.3681425745        3.0397432245
 O        -6.6730383701        1.1684986110        1.4387129635
 O        -7.6399124256       -2.8582011232        2.0973247959
 C        -8.6243798100        0.3235893284        3.2358982271
 C        -9.6802673184       -1.1490933783        1.4693929805
 C        -4.9680980592       -2.4785263870        2.8784506596
 C        -4.0931502152       -2.1287520099        1.6594232100
 C        -3.2230386509       -3.3572321869        1.0407579650
 C        -1.7968645646       -2.7738370757        0.8356444501
 C        -0.5090505147       -3.3952059207        1.5029659265
 C        -3.3026626379       -4.5923112684        1.9141962019
 C        -3.7876852755       -3.8198822735       -0.3676046740
 O        -4.1548024497       -1.0483738919        1.0892277506
 O        -1.5999854829       -1.8468139492        0.0666673364
 C         0.4187292768       -2.2012223038        1.6661452889
 C        -0.2622019590       -1.0683646094        2.4804081144
 C         0.3465968216        0.3919817499        2.4327846093
 C         1.9206817152        0.2992673654        2.8045580419
 C         2.4803292821        1.6026343337        3.2636641306
 O        -1.1572931769       -1.3734593516        3.2226249687
 O         2.5826311916       -0.6914867087        2.6394425270
 C         0.3314655250        0.9555950335        1.0114124896
 C        -0.4830014001        1.2484618384        3.3834335969
 C         3.9478227608        1.5660620960        3.6312306887
 C         4.4066614793        2.9900785632        3.9721401361
 C         5.9334141949        3.2139717780        4.4200517665
 C         6.6867322307        2.8505397693        3.0083387291
 C         7.0599348590        4.0409061035        2.0649201927
 C         6.0754514180        4.6781872264        4.9130220111
 C         6.5207187981        2.1592018913        5.3961764455
 O         3.7206174394        3.9440521322        3.8100765602
 O         6.9886808167        1.7175440618        2.5991501174
 C         7.4549445573        3.4584050402        0.6822949224
 C         6.3674151170        3.4989985912       -0.3685560351
 C         6.7870496462        3.0251677733       -1.8158392868
 C         6.7098487995        1.4066920688       -1.7653683407
 C         5.3252598517        0.7903008095       -1.5869980053
 O         5.1864929318        3.6352813428       -0.2448397615
 O         7.7206269290        0.7463319126       -1.6851363816
 C         5.8208572821        3.6585456459       -2.8063787344
 C         8.2111439226        3.3213635618       -2.1887876481
 C         5.4237054255       -0.7674667996       -1.7061382888
 C         4.0208966555       -1.3363419522       -1.8181818986
 C         3.8562709654       -2.8699974273       -1.7853166560
 C         2.4655735578       -3.3676439564       -2.1127814102
 C         1.7496825205       -2.7710402195       -3.3375116349
 C         4.7546375186       -3.4801824563       -2.9004959318
 C         4.4091557679       -3.4375189891       -0.4974857404
 O         3.1046074108       -0.5684775948       -2.0296726959
 O         1.9120354723       -4.3929293507       -1.6346999627
 C         0.4139376357       -3.3583629802       -3.5499643689
 C        -0.3758819447       -2.9704633118       -4.8418140355
 C        -1.9419319430       -3.0002524324       -4.6371075467
 C        -2.2358786020       -1.7454153873       -3.7734437050
 C        -1.5288251755       -0.4448789665       -3.9820330342
 O         0.1772217717       -2.6627991248       -5.8676329835
 O        -3.0387466644       -1.8924905033       -2.8734953160
 C        -2.6109797990       -3.0066018239       -6.0120550672
 C        -2.3241682846       -4.3410334171       -3.9934709610
 H        -2.4614121924        3.5748565962       -3.2677979630
 H        -4.1585396777        3.3583232878       -3.7632273203
 H        -3.7390743760        4.7630267288       -2.6509332446
 H        -7.8130532527        2.7271388126       -0.7763736916
 H        -7.8407061118        1.8558253207       -2.1514714512
 H        -4.0065618129        2.1262875994        0.7890189236
 H        -5.4886889084        3.1540477277        1.2155179237
 H        -3.9385000959        3.8522867081        0.6717632116
 H        -6.4328626470        4.1237193501       -2.3998037477
 H        -6.7708210879        4.2807654569       -0.6608752732
 H        -5.4092896508        5.0565289241       -1.2931313217
 H        -9.2666153670        0.6785393626       -0.4509153549
 H        -7.6196196071       -0.1431879356       -0.8764570492
 H        -5.7023629674       -0.4195933996        2.5099990465
 H        -5.9247954167       -1.2507899634        4.1595385790
 H        -7.6901051911        0.6601439678        3.7731955767
 H        -9.2423249717       -0.1032991161        4.0577310339
 H        -9.1520337099        1.2127306527        3.0669403005
 H       -10.4598243181       -0.4458536872        1.2673732782
 H        -9.4012759061       -1.6990664789        0.5171165012
 H        -9.9776579289       -1.9995301251        2.0382804136
 H        -5.4694120010       -3.4254370999        2.8252049493
 H        -4.2904740595       -2.5237746092        3.6764299812
 H        -0.5923717146       -3.8855323501        2.4141376352
 H        -0.1738740729       -4.1251590534        0.7226344636
 H        -4.2819352867       -4.9998150682        1.8767646638
 H        -3.0388411090       -4.4113717701        3.0134343429
 H        -2.5849934254       -5.2976553073        1.4987851651
 H        -4.4577995056       -4.6728686103       -0.1749698968
 H        -4.3401388327       -3.0679396087       -0.9670756904
 H        -2.9789324016       -4.2258958429       -0.9893101775
 H         1.3179522686       -2.5762371480        2.1873403772
 H         0.8310729219       -1.8627746592        0.6927534235
 H         2.3483568003        2.3774564585        2.5074110034
 H         1.8979662246        2.0138623070        4.1789986393
 H         0.7176298991        0.2141636226        0.2991838422
 H         0.9005040945        1.9001659829        0.8464546371
 H        -0.7652806018        0.9283142822        0.7059922666
 H         0.1354390383        2.2158078161        3.5168437944
 H        -1.3604979198        1.8461895993        2.9053788208
 H        -0.6260400255        0.7734050164        4.3792858773
 H         4.6147009519        1.2609620016        2.8957502143
 H         3.9905533627        0.9295372396        4.4568107656
 H         6.2301917171        4.7153628166        1.9049562160
 H         7.8783816188        4.6567683100        2.4910551804
 H         5.9654340393        5.4252272705        4.0439547748
 H         7.0715881344        4.7964908691        5.3164650694
 H         5.3354671758        4.8067328560        5.6481367568
 H         7.3519212795        2.5606128392        5.9456653153
 H         5.7877079538        1.6646316399        6.0409036459
 H         6.9305716105        1.2824178974        4.9940684396
 H         8.2719545126        4.0457700331        0.2913465578
 H         7.7419633600        2.4177263018        0.7937446645
 H         4.9412623715        1.1630274169       -0.6672274013
 H         4.6887599002        1.0066080837       -2.4608893593
 H         5.5727506235        3.0001243461       -3.6017977005
 H         6.3021239384        4.5570324801       -3.2694126207
 H         4.8509483430        3.9981449342       -2.3907939011
 H         8.9011498659        2.8720748694       -1.5229746184
 H         8.5078218942        2.9194426431       -3.1498178306
 H         8.2996090329        4.3747154421       -2.2146226498
 H         5.8067111555       -1.2822000149       -0.8517066208
 H         5.8446352979       -0.8668580785       -2.6648016113
 H         1.7593688247       -1.6621369401       -3.2889498039
 H         2.2421176939       -2.9688947193       -4.3732477352
 H         4.5694311637       -3.0550703651       -3.8719268548
 H         4.7211454527       -4.5473523760       -2.9501736431
 H         5.7918714110       -3.1809633314       -2.5393993947
 H         4.4665639358       -4.5365133535       -0.4271798209
 H         5.4677277606       -3.0831523456       -0.3056847644
 H         3.9345072824       -3.0246140573        0.4454649450
 H         0.4450669722       -4.4180646100       -3.5980281212
 H        -0.2874542963       -3.1019369990       -2.7259156037
 H        -1.4874522836       -0.1354780432       -5.0232989523
 H        -1.9540142148        0.3949432901       -3.3348395960
 H        -0.5976092214       -0.5164813839       -3.4570164362
 H        -2.2282452618       -2.1357485439       -6.6461546518
 H        -3.6390806644       -2.9792555327       -5.9682169465
 H        -2.2785591655       -3.8619138739       -6.5419673733
 H        -1.6511068244       -5.0764691626       -4.4185535740
 H        -2.2143724094       -4.3083243485       -2.9362937268
 H        -3.3419576719       -4.5035835596       -4.2203280311
 Na       -3.5010201261       -0.3612823104       -1.1079609984
