155

 C         4.8923105666       -1.0063767873       10.6208405765
 C         5.4813224438        0.3824763720       10.1287655261
 C         6.6527159210        0.4020417261        9.0128459609
 C         6.1042430477       -0.3864687107        7.7594913104
 C         4.7865828123        0.1624642345        7.1312961748
 C         6.9253687728        1.8657373173        8.7023136421
 C         7.9157465499       -0.3276806495        9.6764271842
 O         5.1115817158        1.4302318385       10.5466040570
 O         6.5969082310       -1.4229537899        7.3574266486
 C         3.9311361637       -0.8932757449        6.4724692248
 C         3.0898807891       -0.3525533177        5.3978929601
 C         2.3574637157       -1.3535163952        4.2398877925
 C         1.5112328248       -2.5287456379        5.0356323025
 C         0.8075609523       -3.4816939926        4.1157660769
 O         3.0653997195        0.8455489376        5.2112469579
 O         1.5082877995       -2.6268025699        6.2565248397
 C         1.5251343657       -0.4837194383        3.1815137503
 C         3.5522185878       -2.0282386659        3.5808826216
 C        -0.6689460457       -3.3290495524        4.2084207863
 C        -1.2497399620       -2.6752416605        3.0195933870
 C        -2.7733204076       -2.7239237739        2.6303426924
 C        -3.1821608882       -1.0958232628        2.8078957320
 C        -3.9778349873       -0.7015943889        4.0586614029
 C        -2.9541517999       -3.0885249407        1.1320160799
 C        -3.6344045892       -3.6028835552        3.5366017345
 O        -0.5033255564       -2.0929877398        2.2297856600
 O        -3.0111664588       -0.2326531079        1.9761971117
 C        -3.8337928517        0.8657998937        4.2998179104
 C        -2.4121403165        1.2127503775        4.3674467058
 C        -2.1589181735        2.7582896869        4.7767170291
 C        -1.7299632259        3.5626701957        3.4202936041
 C        -0.2400713342        3.4838461585        3.0344245619
 O        -1.4356429527        0.5010371984        4.3613624349
 O        -2.5401896367        4.0063053431        2.6713750058
 C        -3.4009646647        3.4602236118        5.2621637260
 C        -1.1253263913        2.9433679747        5.9439469772
 C         0.2004753225        3.8792776356        1.6349128811
 C        -0.0145204152        2.6928302506        0.6671314720
 C         0.6109692492        2.6841497802       -0.8268637453
 C         0.5183173072        1.2203439109       -1.3120973220
 C         0.1026182919        0.8839742648       -2.7717154408
 C         0.1112579004        3.9119160106       -1.5428243759
 C         2.2583756804        2.7647802993       -0.7524537220
 O        -0.4860256027        1.6783983054        1.1159351565
 O         0.9700936752        0.3437202229       -0.5985889488
 C        -0.8137578743       -0.3417079372       -2.7699463131
 C        -2.2254962303        0.2015378678       -2.6852219451
 C        -3.1565843133        0.1706736483       -3.9740815483
 C        -2.9711495107       -1.3070455142       -4.4769891453
 C        -3.0116142949       -1.4183568233       -5.9784255263
 O        -2.6663877901        0.2699385669       -1.5713452352
 O        -2.9079241512       -2.2859521602       -3.7678328869
 C        -4.6773174796        0.7155915800       -3.7886249675
 C        -2.4719625300        1.1305254424       -5.0739856601
 C        -4.3548410279       -2.0304725356       -6.3861217852
 C        -4.2777781435       -2.4447021710       -7.8509266289
 C        -4.9662483212       -1.5506681210       -9.0275364886
 C        -3.9470460357       -0.3226718994       -9.0398517292
 C        -2.6909764340       -0.4141750843       -9.8814861921
 C        -4.8750804755       -2.3398908085      -10.3524078870
 C        -6.4248640638       -1.0955142183       -8.8490662267
 O        -3.5608483458       -3.3820465568       -8.1645246501
 O        -4.0658510580        0.7015931327       -8.3601025630
 C        -1.4454255805        0.0258518624       -8.9998291659
 C        -0.2491768060        0.2580448510       -9.8237244812
 C         1.1947128079        0.1213837363       -9.0811259538
 C         1.2287152333        1.0885302184       -7.8265505359
 C         1.1729956130        2.6114395193       -8.1086722142
 O        -0.3482230953        0.5996660163      -10.9732586620
 O         1.4537610693        0.6144156182       -6.7676698922
 C         1.3430303389       -1.4438142376       -8.8520674859
 C         2.2584733317        0.5445397955      -10.1051283235
 H         5.4890706078       -1.7640775417       10.1716425465
 H         4.9166077643       -1.1123904514       11.6963238421
 H         3.7916307489       -1.0290731175       10.2715224713
 H         4.3592037127        0.8094440286        7.9645765179
 H         5.0251233227        0.9088744880        6.4307082854
 H         7.2608538927        2.3973649284        9.5272904289
 H         5.9736226138        2.2478686651        8.3939235066
 H         7.5566286106        1.9787759902        7.8217923115
 H         7.6059701366       -1.2256427651       10.2951441594
 H         8.6486373281       -0.5347983228        8.9565920070
 H         8.3261436736        0.4061785186       10.3502502448
 H         4.6092681185       -1.8088903269        6.0722846481
 H         3.3181191504       -1.2901163735        7.3071019866
 H         1.1351687150       -3.3103484002        3.0936492223
 H         1.1647012115       -4.4708427599        4.3607000916
 H         0.5706483318       -0.2597971337        3.6364655004
 H         1.4120337013       -1.1302017730        2.2751917300
 H         2.0834298408        0.3798717983        2.8801039377
 H         4.1168908633       -2.6534005009        4.2506791317
 H         3.3020515188       -2.4827261459        2.6106135523
 H         4.3232879172       -1.2759438004        3.3415237714
 H        -0.9335990835       -2.7525075523        5.0904665121
 H        -1.2218981438       -4.3017333040        4.2708280659
 H        -4.9918671854       -1.0491538385        3.9038443319
 H        -3.6504041286       -1.2656037590        4.9074821464
 H        -2.5438475540       -2.4358386920        0.3987820775
 H        -3.9893136985       -2.9939301022        0.9387735325
 H        -2.7825524279       -4.1715631635        0.9443195698
 H        -3.3212936763       -4.6645911756        3.5835641812
 H        -3.6644393674       -3.2368577557        4.5971988450
 H        -4.6768479824       -3.3725805309        3.2552054491
 H        -4.3655169151        1.4256946941        3.4890636613
 H        -4.3228226447        1.2746994152        5.2042363282
 H         0.2186978967        4.1403409773        3.8233363937
 H         0.1142553266        2.4678319449        3.2379622648
 H        -3.8295837717        3.1176177278        6.1743662426
 H        -4.2847414563        3.4245945726        4.6081649711
 H        -3.0977288992        4.5680368813        5.3253013107
 H        -1.3192215029        3.8682646967        6.4884085034
 H        -1.3358253800        2.1921491957        6.7027075489
 H        -0.0596306534        3.0466266897        5.7490055385
 H         1.2324926297        4.3684832654        1.6941150637
 H        -0.3752845713        4.7593558598        1.2806742552
 H        -0.3885350483        1.7854733989       -3.3061642443
 H         1.0401298682        0.6674525581       -3.2684495338
 H         0.2698097107        4.7689564934       -0.8831778765
 H        -0.8903625770        3.7269124885       -1.6999290320
 H         0.5136290593        4.1119783429       -2.4871482463
 H         2.5183983010        3.7378107821       -0.3379256780
 H         2.6379501257        1.9657092743       -0.0803439412
 H         2.6416314693        2.6672311952       -1.7135412607
 H        -0.7126589253       -0.8159578206       -3.7275824049
 H        -0.6458950682       -1.0668089202       -1.9868109088
 H        -2.7013564239       -0.6270995222       -6.6296127087
 H        -2.1991019195       -2.1710625595       -6.1138800407
 H        -4.9005951804        1.4547620639       -4.5639504678
 H        -4.8808288055        1.2735190573       -2.9087161802
 H        -5.3490581356       -0.1224824821       -3.7593762061
 H        -2.3629332169        2.0749769760       -4.6337553550
 H        -1.5345976239        0.7898572151       -5.4223266261
 H        -3.1820942567        1.1860596677       -5.9163057133
 H        -5.1910067736       -1.4041575605       -6.2972241884
 H        -4.6426369289       -2.9397036861       -5.8477396189
 H        -2.5510151706       -1.3043641323      -10.4474309155
 H        -2.8400649572        0.2745088045      -10.7450549515
 H        -5.8329400450       -2.7691121533      -10.5273839813
 H        -4.1801674558       -3.1605238318      -10.2147110586
 H        -4.6101509911       -1.7186679057      -11.1620970655
 H        -7.0694184820       -1.9289460113       -8.7072231544
 H        -6.5271271260       -0.3104149367       -8.0642064749
 H        -6.6069784099       -0.5787328658       -9.7958554442
 H        -1.7515369382        0.8967550874       -8.4088717522
 H        -1.1933350709       -0.7286327843       -8.2321791598
 H         2.0261486959        3.0219490169       -8.7083010664
 H         0.2269501428        2.9003963004       -8.5373997132
 H         1.3217800262        3.0766476193       -7.1301905575
 H         0.9582016746       -1.8902334612       -9.7734581132
 H         0.6766740554       -1.6549830656       -8.0406022553
 H         2.3870974834       -1.6719272261       -8.5480351420
 H         2.2078263097       -0.1585620103      -10.9297685516
 H         2.0623780676        1.5294863085      -10.5402458758
 H         3.1653185584        0.5654426273       -9.4872612493
 Na       -1.3453867966       -0.2955946891        0.3941296002
