155

 C       -12.9352891008       -5.0579877242        3.8218588029
 C       -12.2981945048       -3.7916256166        3.1761921135
 C       -10.8540212788       -3.2495306039        3.8150024745
 C        -9.9840671097       -2.8705362204        2.5836304429
 C       -10.0967407189       -3.6838583961        1.3310010138
 C       -11.1823242941       -2.1825436176        4.8481705086
 C       -10.0391588191       -4.3337434066        4.6211442120
 O       -12.6629020657       -3.2852773400        2.1341577870
 O        -9.3396285513       -1.8752822962        2.7307042538
 C        -8.7317438755       -3.8760697628        0.6294408037
 C        -7.7195195482       -4.7274498539        1.4415051757
 C        -6.3176237568       -4.0540907202        1.5806050967
 C        -5.6626072182       -3.4183567723        0.2869176665
 C        -4.2802409772       -2.8277668512        0.4005814841
 O        -7.8473412485       -5.7769550004        1.9647268093
 O        -6.1491612236       -3.5730141567       -0.8436457356
 C        -6.5571047209       -2.8584836493        2.7415432102
 C        -5.2125717453       -5.0105567787        2.1446030705
 C        -4.2113701097       -1.5126408137       -0.5186035165
 C        -2.8726035983       -1.1737746409       -1.0719760292
 C        -2.6849356600       -0.7027435622       -2.6983958269
 C        -2.2671563509        0.8228808905       -2.4940465199
 C        -3.2431598563        1.8571426474       -2.9100311749
 C        -1.3175735573       -1.4552404390       -3.2111931206
 C        -3.9535961005       -1.0434298874       -3.6266842019
 O        -1.8824204285       -1.2723488724       -0.4555800377
 O        -1.2636662624        1.0577309451       -1.8611367268
 C        -3.0268746096        3.0628398605       -1.9158804081
 C        -3.6377817025        2.7306854422       -0.5373628463
 C        -3.8439836049        3.7423301447        0.5751917542
 C        -3.0012428619        3.3788032353        1.9730204171
 C        -3.4194769077        2.0961776291        2.6701589227
 O        -4.0339653025        1.5673055527       -0.3491052550
 O        -2.1423264059        4.1333224607        2.2513580395
 C        -3.4708670226        5.2011449526        0.0655016187
 C        -5.3675388140        3.8356446560        1.0374783713
 C        -2.3312346009        1.4441904618        3.5535560920
 C        -1.0743522499        1.0943172103        2.7056646481
 C         0.2452988147        1.0196070811        3.5142050772
 C         1.3679584377        1.1116529869        2.4241107632
 C         2.0264613278        2.4615087990        2.1860804044
 C         0.5356114776        2.1748091849        4.5417283796
 C         0.2648519763       -0.3982331469        4.1279433725
 O        -1.1632447475        0.7756344023        1.5359939427
 O         1.5651479415        0.2308813643        1.6311826688
 C         2.7286869987        2.6295998116        0.8657756220
 C         1.8517009060        2.4278667361       -0.3484256097
 C         2.5191849898        2.0818309490       -1.7416169062
 C         2.8398961320        0.5580644628       -1.9488723396
 C         3.6047050263        0.0756645304       -3.1253449243
 O         0.6285866007        2.5295789062       -0.2305626719
 O         2.0425104423       -0.2390517189       -1.4542204040
 C         1.5682442488        2.4423967183       -2.8704684312
 C         3.8723457097        2.9164662207       -1.8736949518
 C         4.7547067189       -0.8769660163       -2.7754941389
 C         5.6254663520       -0.4404708836       -1.5025633754
 C         7.0729080971       -1.0261061242       -1.3654269952
 C         7.9940504001       -0.1737915476       -2.4882399479
 C         9.1467620109        0.5904064772       -1.9375672644
 C         7.6434743874       -0.6587575382       -0.0215222975
 C         7.0854433753       -2.4195777417       -1.8156772298
 O         5.1584623867        0.3973387496       -0.7613369347
 O         7.7239791238       -0.4998878780       -3.6491837336
 C        10.0205182427        1.1255709777       -3.1104654089
 C        10.8508220833        2.4260309227       -2.9112122597
 C        12.0418541966        2.6282082757       -3.9298878039
 C        13.2201788617        1.7218635406       -3.4016211874
 C        13.9376866564        2.1954310693       -2.1406277753
 O        10.6075795259        3.1541330463       -2.0063350337
 O        13.5320545483        0.7498389134       -4.0489770291
 C        11.6530927001        2.1574938642       -5.3382131662
 C        12.3996719400        4.0757704288       -4.0916231999
 H       -12.2638476908       -5.8830584280        3.5596529461
 H       -12.9608695705       -5.0055578981        4.9106742751
 H       -13.9737238952       -5.2061601037        3.5262175129
 H       -10.5264744999       -4.6953138218        1.5076238101
 H       -10.7683857381       -3.1191970886        0.6415373888
 H       -10.2464205305       -1.8638839716        5.3334745803
 H       -11.9388171956       -2.5361258596        5.5932660034
 H       -11.5897502541       -1.3829115429        4.2872803395
 H       -10.5788369293       -4.4686456600        5.5586147653
 H       -10.1327448139       -5.1843359265        4.0635243439
 H        -9.0163776179       -3.9767279226        4.6724119158
 H        -8.8130735742       -4.2639470270       -0.3472183130
 H        -8.4158257024       -2.8277162577        0.6312254606
 H        -3.9966058709       -2.5541144922        1.5029135368
 H        -3.5456340001       -3.6343212844        0.0797075832
 H        -5.5156754245       -2.3467174311        2.8382960581
 H        -6.9759961531       -3.3717415485        3.5812542757
 H        -7.2852705294       -2.1712990119        2.2868968502
 H        -5.4614615306       -5.8088856129        2.8844707475
 H        -4.8020574601       -5.6251895162        1.3048909451
 H        -4.3765639613       -4.4107887262        2.5956541626
 H        -4.4000227562       -0.6528818898        0.1154097184
 H        -5.0141300949       -1.6014386185       -1.2877820117
 H        -3.2155368479        2.0735793485       -4.0434433159
 H        -4.2991554695        1.4726236403       -2.8300176913
 H        -0.5175615353       -0.7649832540       -3.0820516789
 H        -1.3461994630       -1.6545583316       -4.3030775886
 H        -1.2261021536       -2.4172996529       -2.6854669828
 H        -4.4889335182       -1.7331104812       -3.0023447245
 H        -4.4413308465       -0.0454967435       -3.6056892362
 H        -3.6624778909       -1.4650272745       -4.5858036122
 H        -2.0034065133        3.1353801008       -1.8904812779
 H        -3.4428965991        4.0267306759       -2.2703265019
 H        -4.3921433042        2.1922455345        3.2381693115
 H        -3.6381018127        1.4685148179        1.8350815513
 H        -2.4449499666        5.4181760314       -0.2039601259
 H        -3.5644556964        6.0109033514        0.8011923259
 H        -4.0968425440        5.6173672931       -0.7316763152
 H        -5.9024879286        4.4097542574        0.3206444574
 H        -5.8293915933        2.8438849639        1.1030374958
 H        -5.5269966231        4.2372191547        2.0108234062
 H        -2.6874942729        0.5431183699        4.0778588117
 H        -2.1009199995        2.1744946265        4.2929743867
 H         1.2665743233        3.3327960184        2.2940743883
 H         2.7353264394        2.5357671059        2.9624775969
 H         0.3308949819        3.1273333598        4.1237029980
 H         1.5341310884        2.0472719835        4.9568596353
 H         0.0058672486        2.1864811963        5.4346574992
 H         0.9983616195       -0.5087358571        4.9596609901
 H        -0.5543077019       -0.7785138842        4.6664695705
 H         0.4123946703       -1.0892195259        3.2269437359
 H         3.1105413655        3.6783132253        0.7710814617
 H         3.4923480596        1.8384473939        0.7896698042
 H         2.8281694181       -0.4171580312       -3.8050481481
 H         4.0535595830        0.9727147212       -3.6859528797
 H         0.9849004973        3.3194142157       -2.6254862657
 H         0.8967750460        1.5936118211       -3.0245494785
 H         1.9753278275        2.6881740532       -3.8013739202
 H         3.8027265922        3.4134297681       -2.8770090297
 H         3.9661075904        3.7998152832       -1.2523595995
 H         4.7813175387        2.2639064912       -1.6455238568
 H         5.4116727458       -1.0017492378       -3.6393848619
 H         4.3735155477       -1.8881564112       -2.3957029530
 H         8.8584269765        1.5436540734       -1.4025224112
 H         9.7994154038        0.0517294723       -1.1840185601
 H         7.9113132307        0.3204893413        0.1399922188
 H         8.4988403733       -1.3382879821        0.2061385569
 H         6.8485683210       -0.7816195038        0.6988581893
 H         6.2995137619       -2.6566633747       -2.5166336990
 H         8.0282834744       -2.6320703525       -2.3071977356
 H         6.9729675655       -3.0998053096       -1.0156123002
 H        10.6867468473        0.3560766976       -3.6115518684
 H         9.4267186297        1.4098138424       -4.0170186131
 H        14.4791862922        3.0788233509       -2.3603354762
 H        13.3429984319        2.2739126598       -1.2602221392
 H        14.6325062588        1.4022439156       -1.9117140963
 H        10.7869829057        2.5882473964       -5.7484778803
 H        11.6115990150        1.0586388458       -5.3789485396
 H        12.4953227738        2.2767098804       -6.0097919385
 H        13.2428432761        4.1951283555       -4.7680418287
 H        11.5531350336        4.7465005779       -4.2789002297
 H        12.8057873459        4.4443214187       -3.1786367201
 Na        0.0053575279       -0.0765452855       -0.3846484654
