155

 C        -4.0762496760        3.2669128028       -2.8784204844
 C        -4.0849302686        2.2553598276       -1.7236564700
 C        -5.3009728490        2.2765135895       -0.7194943584
 C        -6.3014452972        0.9911200977       -0.9559667599
 C        -7.8408048501        1.1146109718       -0.6995778848
 C        -4.6321759887        2.1621667191        0.6987557619
 C        -6.0280381761        3.6693238616       -0.6551501321
 O        -3.1615978950        1.3906082835       -1.6213080452
 O        -5.8595687513       -0.0533835298       -1.3393161318
 C        -8.3169820989       -0.1873480171       -0.1065350807
 C        -8.3084627355       -0.0690664587        1.4463448493
 C        -8.3674671385       -1.3996041905        2.1901059563
 C        -6.9839696280       -2.0273647542        2.1025557835
 C        -6.0805078736       -1.7521024341        3.3151436093
 O        -8.2594926095        1.0531652042        1.9628721674
 O        -6.6222161460       -2.7677444654        1.2557617800
 C        -8.9461639870       -1.0775371642        3.6053052276
 C        -9.3288963945       -2.4936779557        1.3840346440
 C        -4.5612753951       -1.8559000822        3.0630358345
 C        -4.3543711213       -2.0334546111        1.5481107747
 C        -3.7678016813       -3.3868638896        0.9162720636
 C        -2.1259177968       -3.0768936304        0.7304747042
 C        -1.0556527077       -3.3280291929        1.8674355607
 C        -3.9526674200       -4.5580246460        1.8442126639
 C        -4.3636181255       -3.6764600703       -0.5311771439
 O        -4.2608065776       -1.0343967066        0.8448146868
 O        -1.7875353248       -2.5443000771       -0.3061831971
 C         0.0764018428       -2.3119520898        1.8187007063
 C        -0.5448698130       -0.9705456695        2.2355939542
 C         0.2073449957        0.4259405558        1.9965330893
 C         1.5604623573        0.6902290544        2.6688226485
 C         2.0196222169        2.1127653307        3.0047738593
 O        -1.7130395118       -0.9793528849        2.5863797728
 O         2.3454194288       -0.2280434839        2.8750073134
 C         0.4560777595        0.6301574121        0.4798843710
 C        -0.9212089474        1.4141534053        2.3953627198
 C         3.3657864285        2.0735711993        3.7640450668
 C         4.1409260889        3.4670589103        3.7494130923
 C         5.5705266245        3.6822676075        4.2706537657
 C         6.5143275651        4.0534426047        3.1010100741
 C         6.0298732180        5.1168580050        2.0741762806
 C         5.6184943233        4.9975981325        5.1738586063
 C         6.3184673672        2.4603507228        4.9670098005
 O         3.5539139622        4.4635961463        3.3050443532
 O         7.5603258950        3.4739598735        2.8994440051
 C         6.6880206935        4.7363922653        0.6628972732
 C         6.3757772945        3.3184061995        0.3042502452
 C         7.0526956779        2.7440329712       -0.9829325064
 C         6.8966394230        1.2006241158       -1.0601211023
 C         5.4227220157        0.5966433084       -0.8279619221
 O         5.4766930003        2.7671640517        0.9263413881
 O         7.8270138626        0.4259100469       -1.2240253188
 C         6.2955096725        3.3176831223       -2.2233597028
 C         8.5015713366        3.1903658217       -0.8554240475
 C         5.4464400214       -0.8570370567       -1.2928661245
 C         4.1387847741       -1.5207184634       -1.6675052443
 C         4.0682527479       -3.1867307715       -1.7108517834
 C         2.7476958778       -3.7726314608       -2.2255693458
 C         2.3235256715       -3.5471028779       -3.7231084804
 C         5.2207873887       -3.5707605633       -2.7732567409
 C         4.2991133949       -3.7046410837       -0.2885756740
 O         3.1722387349       -0.8947992735       -2.0179257708
 O         2.2111131506       -4.5650683581       -1.5003346224
 C         0.7870143233       -3.1022888582       -3.8063071325
 C         0.6060009860       -2.3127263563       -5.1875398421
 C        -0.9048825028       -1.7458260566       -5.4923164685
 C        -1.4914331203       -1.1761193211       -4.1614028658
 C        -0.7667953046        0.0741977627       -3.6684319718
 O         1.4669946543       -2.3139711466       -6.0580057033
 O        -2.4465636055       -1.6454586606       -3.5351105418
 C        -0.5804742715       -0.5737120667       -6.4005638891
 C        -1.7726435991       -2.8888483425       -6.0833972056
 H        -3.3119071869        2.9199199933       -3.5792616760
 H        -5.0634433606        3.2102655308       -3.2590207254
 H        -3.8069696804        4.2149094409       -2.5022633695
 H        -8.0459011731        2.0008681276       -0.0825840506
 H        -8.2658139478        1.2865953569       -1.7431927113
 H        -3.9792007656        1.2465907317        0.7702837036
 H        -5.3917273045        2.0640520350        1.4833356843
 H        -4.0280780437        3.0364298010        0.9669337388
 H        -6.8524985114        3.6788931617       -1.4181144428
 H        -6.5169575690        3.8375315246        0.2734220315
 H        -5.3351604483        4.4903400244       -0.7362449659
 H        -9.3467254864       -0.4693725320       -0.5244849716
 H        -7.8213889659       -1.0716995306       -0.5218422322
 H        -6.2061839076       -0.8227389771        3.9128372652
 H        -6.4373673209       -2.6157036770        4.0196935347
 H        -9.1407390897       -1.9375193401        4.2331366624
 H        -9.7365107648       -0.2604340387        3.5404870349
 H        -8.1699445790       -0.3765615545        4.0958232470
 H       -10.4089010069       -2.1816267360        1.5839350902
 H        -9.0547987562       -2.5018253239        0.3453231990
 H        -9.1851032498       -3.5258586670        1.8718786006
 H        -4.0346904590       -2.6006219612        3.7184983838
 H        -4.2553706040       -0.8588229363        3.3110631174
 H        -1.4997129011       -3.4516357998        2.7953901885
 H        -0.5315954326       -4.3290645455        1.6572843226
 H        -4.9779810629       -4.7562844217        2.0663377788
 H        -3.4004689404       -4.3545064845        2.8341599667
 H        -3.4977207459       -5.4243248184        1.3516134666
 H        -5.1027495636       -2.9008796411       -0.7530294188
 H        -3.6199092369       -3.7422829880       -1.3359861093
 H        -4.8826076925       -4.6370477921       -0.4903711421
 H         0.8340054912       -2.5543352219        2.6322085559
 H         0.5060979223       -2.2583424343        0.8220961554
 H         2.0973462621        2.7520022957        2.0925238854
 H         1.2514583031        2.6892104174        3.5701798984
 H         1.1561233811       -0.0874857273        0.1138113751
 H         0.7783781992        1.6134401902        0.1961704207
 H        -0.4859144265        0.2839004359        0.1026234470
 H        -0.5338320324        2.4296187821        2.0094053054
 H        -1.8409504470        1.3548517768        1.7748946568
 H        -1.2919845912        1.5525498442        3.4932959563
 H         3.9944092089        1.3345801945        3.3913893707
 H         3.1548730985        1.7972785723        4.8113150872
 H         4.9506843242        5.1162504000        2.0952656272
 H         6.3301687113        6.0373923881        2.4704225355
 H         5.0856284453        5.8495368032        4.7510566168
 H         6.6572955447        5.2557101591        5.2826797922
 H         5.2146716924        4.6724063809        6.1633652239
 H         7.2712326496        2.9485382325        5.2351329643
 H         5.6270812082        1.8779852108        5.5592749961
 H         6.5968538310        1.6629677382        4.2607699701
 H         6.3634017811        5.5449868541       -0.1146913898
 H         7.7886302320        4.9174375250        0.6370351621
 H         5.2114675461        0.6277382473        0.2963819284
 H         4.6626927510        1.2489482954       -1.3162853468
 H         6.6356678352        2.7675473918       -3.0658875604
 H         6.7289983633        4.3268338925       -2.4834853955
 H         5.1998982923        3.3301543937       -2.0630030737
 H         8.8511420381        2.9096532678        0.1000373935
 H         9.1819426933        2.8019974942       -1.6027732253
 H         8.5086294920        4.2343191993       -0.9924959157
 H         5.9146397659       -1.5697003996       -0.5388786237
 H         6.1621835618       -1.0314326542       -2.0557623131
 H         2.9571898886       -2.7884054149       -4.1428562256
 H         2.4660450629       -4.4609920439       -4.3751529156
 H         5.0771872896       -3.2694355366       -3.7720337497
 H         5.4558369083       -4.6180571422       -2.7066459658
 H         6.1930392305       -3.0582201598       -2.4996449292
 H         3.8749097510       -4.6487717394       -0.2794449239
 H         5.3433202818       -3.6989395827        0.1164084952
 H         3.7903175921       -3.0445520580        0.3294059760
 H         0.0688601280       -3.8524420325       -3.7787245586
 H         0.4198874293       -2.5030536258       -2.9969244103
 H         0.2116275832        0.2501360152       -4.0810396638
 H        -1.3620518895        0.9389517380       -3.9148135910
 H        -0.6729739565        0.1351564272       -2.5826873455
 H         0.3664915215       -0.1086139813       -6.2162147500
 H        -1.3637924129        0.2389560986       -6.3875243378
 H        -0.4809379424       -0.7999560171       -7.4510732103
 H        -2.7604985406       -2.9124695883       -5.6117504187
 H        -1.9691182261       -2.6956033348       -7.1192268865
 H        -1.3665777739       -3.8683940825       -6.0383157470
 Na       -3.2649495067       -0.9656165330       -1.4485200936
