155

 C        -4.3526245262        3.0008453815       -3.0111678231
 C        -4.3070535283        2.1711379368       -1.6998454721
 C        -5.4708604123        2.1838160508       -0.5703842839
 C        -6.3491308887        0.8819091257       -0.8254629640
 C        -7.9218276093        1.0179771592       -0.5555592903
 C        -4.7753555820        2.0089609775        0.8096399944
 C        -6.1802944695        3.5290948591       -0.6314090913
 O        -3.2364903998        1.5597628300       -1.4146925203
 O        -5.8363067457       -0.0668038248       -1.3491678465
 C        -8.4045355080       -0.2798053283       -0.0387288912
 C        -8.3692831148       -0.3039735204        1.5523604727
 C        -8.5536448550       -1.7533730915        2.0813398145
 C        -7.0466216965       -2.1613838049        2.1128542715
 C        -6.0575047876       -1.2852164485        2.9387250185
 O        -7.8992062310        0.6031921730        2.2200916842
 O        -6.6669314608       -3.1620708817        1.5515605281
 C        -9.1164406301       -1.4071667568        3.5995053393
 C        -9.4218785873       -2.6392880121        1.1991678152
 C        -4.6929917634       -1.9832009088        2.9128209786
 C        -4.0867042260       -2.0193981316        1.5277824532
 C        -3.5104694526       -3.3083675588        0.7910199387
 C        -2.0456607458       -2.8279250181        0.5049498125
 C        -0.9374116280       -3.1023145903        1.5789699056
 C        -3.5653742831       -4.5892928307        1.6781079601
 C        -4.1158226722       -3.7576173572       -0.5921128888
 O        -3.9977095597       -1.0273734484        0.8172944905
 O        -1.8090941673       -2.1430275130       -0.4898885721
 C        -0.0930268511       -1.8681150655        1.8598938340
 C        -0.7162386780       -0.5133175444        2.3495912421
 C         0.1099603569        0.7888970999        1.9318991353
 C         1.5500112533        0.7158354042        2.6214090807
 C         2.1551953411        2.0166502355        2.7793508795
 O        -1.4914728711       -0.5815933693        3.2957906404
 O         2.0393025892       -0.3435203272        2.9603554707
 C         0.3304224392        0.7937674484        0.3676944938
 C        -0.7597169761        2.0233485589        2.1264715425
 C         3.4154597506        2.0497226341        3.6294102503
 C         3.8258781703        3.5180913569        3.8769617010
 C         5.2737150977        3.8172525979        4.3978341514
 C         6.2458598863        4.0192324674        3.1883088437
 C         5.8939283735        5.1017426138        2.0718708373
 C         5.4232288055        5.0793549978        5.2354401110
 C         5.8614072449        2.5810925476        5.2037544131
 O         3.0859208744        4.5121994742        3.5669713810
 O         7.3263720887        3.4863427341        3.1708464425
 C         6.4921442951        4.6865645392        0.6319308507
 C         6.1997990812        3.2375993830        0.2342056623
 C         6.9536260868        2.6095231611       -1.0275806761
 C         6.8696973062        1.1021142210       -0.9738037020
 C         5.4454587334        0.3916863223       -0.9458345628
 O         5.5386326866        2.5305344216        0.9726814617
 O         7.8252524161        0.3854777060       -1.2388693305
 C         6.2250862726        3.2221769660       -2.2956948224
 C         8.4964248883        3.0200083322       -0.9523354952
 C         5.6582787556       -1.1437552663       -1.4692301823
 C         4.3187988672       -1.7900257533       -1.5809919906
 C         4.2384791156       -3.3526442380       -1.6290755546
 C         2.9510967891       -3.6226119748       -2.3971624323
 C         2.8811059340       -3.0913954712       -3.8311178535
 C         5.4097641665       -3.9498000108       -2.3060390492
 C         3.9811261392       -3.9437118482       -0.1922930125
 O         3.3047092287       -1.1218248206       -1.7330829336
 O         2.0071863791       -4.1961278778       -1.9070367207
 C         1.2823568206       -2.7831138616       -4.0424341937
 C         0.8071622889       -2.3370813891       -5.4147116124
 C        -0.5705440968       -1.5268275933       -5.3917268017
 C        -1.1117173051       -1.0500656088       -4.0729759462
 C        -0.5257311166        0.1062868709       -3.3725437196
 O         1.2986118034       -2.4722058178       -6.4653682973
 O        -2.0950385789       -1.6373827484       -3.6082193293
 C        -0.3372863633       -0.3053214340       -6.3773443263
 C        -1.5733815398       -2.6007152856       -6.1176559810
 H        -5.3610118668        2.8999789370       -3.4633684846
 H        -4.1896122662        4.0138026222       -2.6743127525
 H        -3.5400333711        2.5684744204       -3.6543702881
 H        -8.1126753806        1.8273907189        0.1928462351
 H        -8.3488901705        1.4163802122       -1.5577506849
 H        -4.0359517927        1.1647927013        0.8576087574
 H        -5.5392068423        1.8462476835        1.6111620486
 H        -4.2200407568        2.9304130988        1.1314581409
 H        -6.8549286526        3.6409645389       -1.4981150914
 H        -6.7389097318        3.7149063390        0.2265671744
 H        -5.4370966576        4.2703139558       -0.7039209214
 H        -9.4508904853       -0.4726231160       -0.3996911224
 H        -8.0279992738       -1.2121746294       -0.4395701922
 H        -5.8450269314       -0.2574830591        2.5867043284
 H        -6.4166287860       -1.2749535941        4.0310909647
 H        -8.9234132527       -2.2901762384        4.1562549137
 H       -10.1706615732       -1.0412645116        3.5447765056
 H        -8.4792418122       -0.5458941997        4.0153084043
 H       -10.3242614557       -2.1015690437        0.9073537140
 H        -9.0046164667       -3.0878737043        0.3632635677
 H        -9.6603307403       -3.3930920557        1.9307344528
 H        -4.8765598179       -2.9776116956        3.3697497606
 H        -3.9845194240       -1.3758689502        3.5432325347
 H        -1.2987867559       -3.6183700396        2.4017108370
 H        -0.2614589164       -3.8557330170        1.0657650448
 H        -4.5309099103       -4.9679975516        1.5802311660
 H        -3.4348500970       -4.2874116959        2.7193037870
 H        -2.8496982778       -5.3218487870        1.3352471761
 H        -5.0538061934       -3.2518605478       -0.7541396128
 H        -3.4171347130       -3.5223407430       -1.4232670655
 H        -4.4021911556       -4.8313734628       -0.5464612123
 H         0.5561452926       -2.1360287424        2.7579482576
 H         0.5418897491       -1.6119918349        1.0200577523
 H         2.4305625305        2.3061865122        1.7419508655
 H         1.3291206983        2.7205058477        3.0320818869
 H         1.1573157707        0.0609557250        0.1839683264
 H         0.4574865698        1.7772994042       -0.0608227978
 H        -0.5915943938        0.3261157807       -0.0049419756
 H        -0.1510031988        2.8669594398        2.1258113330
 H        -1.7108611639        2.0973693218        1.6272595391
 H        -1.2398060207        1.9130051012        3.1817780748
 H         4.1822031119        1.5243579984        3.1077094441
 H         3.0893657784        1.5036422803        4.5664873972
 H         4.8409358960        5.2363884946        2.1424948085
 H         6.2335248451        6.0141530756        2.4734918254
 H         5.2291731227        5.9943190584        4.7224000397
 H         6.4485161345        4.9860370891        5.6329748027
 H         4.6605003280        5.0084199685        6.1402895352
 H         6.8768247061        2.9554195614        5.4031630441
 H         5.2773810374        2.3396210899        6.1316110595
 H         5.8999346575        1.7465916353        4.4337956690
 H         6.0749383248        5.3617592833       -0.2015660259
 H         7.5968645147        4.8077171014        0.7139606332
 H         4.9482758435        0.4127771701        0.0616808494
 H         4.8428403206        0.9265398584       -1.7656701650
 H         6.7457791027        2.8575284948       -3.1436204021
 H         6.2259579281        4.3338737914       -2.2855658699
 H         5.1782060142        2.8916859792       -2.2582578266
 H         8.7846078592        2.9349308822        0.0557039188
 H         9.1332550755        2.3994933405       -1.5699615365
 H         8.6753685776        4.0403168944       -1.2518296436
 H         6.2621645373       -1.7184258415       -0.6811116575
 H         6.0931095871       -1.1887613046       -2.4481094008
 H         3.5181354588       -2.2812673260       -4.0050736179
 H         3.2637991304       -3.8804156647       -4.4943189336
 H         5.5080517551       -3.4949574548       -3.2866545266
 H         5.4768740880       -5.0051728740       -2.4375032464
 H         6.3512324066       -3.6557027367       -1.7009742176
 H         3.9584907199       -5.0134065232       -0.3087022749
 H         4.6937117346       -3.4362353480        0.5072613506
 H         3.0299739865       -3.5991551281        0.1626103321
 H         0.5508533323       -3.4168460282       -3.6854770758
 H         1.0619377880       -1.9073618245       -3.3770144558
 H         0.6055613111        0.0346446777       -3.1606861354
 H        -0.6006240706        1.0515019841       -3.8949409388
 H        -1.1819024122        0.2552795836       -2.4254307823
 H        -0.1605063892        0.5994055842       -5.8839609233
 H        -1.3261863580        0.0944137988       -6.8530202215
 H         0.4680740844       -0.4595597822       -7.1112260384
 H        -1.8336395686       -2.3221780839       -7.1309215542
 H        -1.1657648043       -3.5712120952       -6.2549148738
 H        -2.4561883585       -2.6882329297       -5.5343710243
 Na       -3.3719881767       -1.1068968176       -1.5999142300
