155

 C        -4.3716220032        2.9247636689       -3.0193338889
 C        -4.1987112154        2.0857130770       -1.6703011107
 C        -5.4339154193        2.1475265186       -0.6671793059
 C        -6.3651530275        0.8844693599       -0.9059420318
 C        -7.8917387903        1.0716151655       -0.6413953814
 C        -4.8309482744        2.0338896365        0.7811819074
 C        -6.2459211051        3.4351931484       -0.6581790021
 O        -3.1891164869        1.4764066102       -1.5350218496
 O        -5.8959480701       -0.1880718037       -1.2804847644
 C        -8.6051233856       -0.1814500381       -0.2134808778
 C        -8.3461995895       -0.3199774618        1.3060905699
 C        -8.5037916935       -1.7618539343        2.1930313688
 C        -6.9705360179       -2.3702111750        2.2968723116
 C        -5.9116736477       -1.4800904241        2.8781592085
 O        -8.0562361307        0.6564388346        1.9905817588
 O        -6.7409901655       -3.4268556513        1.7889530891
 C        -9.1726464654       -1.6578069957        3.5640713096
 C        -9.3218449006       -2.8521666826        1.4289774316
 C        -4.5238742216       -2.1683612316        2.7327890308
 C        -4.0993954805       -2.2155064072        1.3038285079
 C        -3.3857184543       -3.3991130732        0.6522486273
 C        -1.8435506389       -2.7388896872        0.5902432227
 C        -0.8379550064       -2.9310862358        1.7862275797
 C        -3.2299118521       -4.6000948821        1.6469757850
 C        -4.0638169678       -3.7097417974       -0.6997794394
 O        -4.2821999803       -1.1761304069        0.6789977580
 O        -1.6615716064       -1.9498139583       -0.3024422548
 C         0.1083208187       -1.7554306497        1.8512379948
 C        -0.5717073375       -0.5048488339        2.3198764895
 C         0.0893989588        0.8669406138        1.8751049123
 C         1.3616335475        0.9439535494        2.5826080397
 C         2.1619483048        2.2866147774        2.5455900855
 O        -1.4887076346       -0.5809193645        3.0933299873
 O         1.9041799320       -0.0646458397        3.0440249622
 C         0.3737201386        0.7601997557        0.3032424286
 C        -0.9928555285        1.9489249501        2.3125455683
 C         3.5485188408        2.1350559090        3.2253740176
 C         3.8578976757        3.5081350456        3.8358859178
 C         5.2578793221        3.8593837393        4.5719841364
 C         6.2736045336        4.0708098090        3.3433665900
 C         5.6752999542        4.7800561191        2.0670332216
 C         5.0386473426        5.2413787066        5.2999454017
 C         5.7802690512        2.7232303726        5.4611237321
 O         3.1280624946        4.4131899775        3.8054486817
 O         7.3369360654        3.4886135223        3.1906219879
 C         6.4400451953        4.4531488379        0.8617311630
 C         6.1209219480        3.0547495839        0.2897790555
 C         6.9700703780        2.6551068117       -1.0650965419
 C         6.9949499608        1.0331347035       -1.1327691127
 C         5.6113571303        0.2691582760       -1.1660178670
 O         5.3050189902        2.3824051544        0.8959913594
 O         8.0954635569        0.5304886468       -1.0959256252
 C         6.2409238746        3.2732532835       -2.3405181364
 C         8.4161573570        3.2455991453       -0.9896850494
 C         5.7219339043       -1.1896017312       -1.3389386590
 C         4.2969395013       -1.9070579843       -1.4469742877
 C         4.1902345155       -3.4930910051       -1.6275824554
 C         2.9619956502       -3.7451878050       -2.5280469558
 C         2.7624833437       -3.1665457528       -3.9669697343
 C         5.5377935512       -4.1390436986       -2.0773971757
 C         3.8904688802       -4.0933070500       -0.2222016459
 O         3.2922549912       -1.2454526407       -1.3601554117
 O         1.9461152101       -4.2269700024       -2.0851067082
 C         1.3821164456       -2.7167477700       -4.0113684755
 C         0.8681389480       -2.2513708393       -5.4096503266
 C        -0.5641539973       -1.3570848705       -5.4383981233
 C        -1.1482986457       -0.9410309468       -4.0273139331
 C        -0.5087692314        0.2705191887       -3.3698097767
 O         1.5144101142       -2.4640434898       -6.4514511918
 O        -2.1505461480       -1.4453840083       -3.5249553123
 C        -0.3663871402       -0.1388520815       -6.3746647570
 C        -1.5251629303       -2.3315313485       -6.0820927082
 H        -5.2970259732        3.4974242143       -2.9752583900
 H        -3.5396857825        3.6098062552       -3.0719447937
 H        -4.3717652371        2.2315940077       -3.7689218761
 H        -7.9129132625        1.8957296207        0.0685702573
 H        -8.2690912352        1.4668682447       -1.5324616002
 H        -4.1887464602        1.1438421284        0.9154728366
 H        -5.6105120651        2.0179941172        1.5400251754
 H        -4.1820776858        2.8838006798        0.9715106457
 H        -6.8930430762        3.3995437754       -1.5151760066
 H        -6.9028930402        3.5590620017        0.2366158662
 H        -5.6390266572        4.3363731377       -0.8893305058
 H        -9.6282949386       -0.3620944604       -0.5191911994
 H        -8.1947356960       -1.1391829325       -0.6408215255
 H        -5.9710370073       -0.5831806026        2.2362405964
 H        -6.1179243149       -1.2471287820        3.9015622283
 H        -8.4092865634       -1.9689750826        4.2998888395
 H        -9.9453097387       -2.4979120445        3.5225308690
 H        -9.6381905893       -0.7270833809        3.8625774668
 H       -10.4252004248       -2.6495372784        1.2771681195
 H        -8.8657481660       -2.9591818696        0.3954587888
 H        -9.0835842803       -3.8510754290        1.9501241012
 H        -4.7847867736       -3.1217700787        3.1853720027
 H        -3.7142364660       -1.6951956745        3.2517804839
 H        -1.4820669848       -3.0632554164        2.7166259493
 H        -0.3622387777       -3.8806189619        1.6384356678
 H        -4.2390634220       -4.9690556890        1.9651930235
 H        -2.6328342264       -4.3214966944        2.5256934792
 H        -2.7072099616       -5.3694932544        1.0766912138
 H        -4.9971646436       -3.0798559683       -0.7247741503
 H        -3.3980484309       -3.4156302277       -1.4989058459
 H        -4.4009782642       -4.7151273747       -0.7544900615
 H         0.9331391227       -1.9537846304        2.5026261815
 H         0.5398357644       -1.5106018933        0.8645891188
 H         2.3145039063        2.6177142326        1.5100086110
 H         1.5797401966        3.0577793516        3.0516086782
 H         1.2763966420        0.2436592895        0.1828794301
 H         0.4007966871        1.7775821729       -0.0775864197
 H        -0.5170432715        0.3522890366       -0.1377166106
 H        -0.6373600739        3.0105512593        2.1655602902
 H        -1.8840903610        1.6823043633        1.6954602232
 H        -1.4188200104        1.9123124727        3.3272337054
 H         4.3411040563        1.9016209928        2.4968371216
 H         3.3812081236        1.3081850462        3.8525007849
 H         4.5906530436        4.4981927827        2.0357028336
 H         5.5721811676        5.8557704001        2.3203393559
 H         4.4925993383        5.8569787886        4.5489982766
 H         5.9682081392        5.6688817432        5.6119601077
 H         4.4202813939        5.1641600843        6.0990217864
 H         6.6275998732        3.1339662324        6.0577431221
 H         4.9745488441        2.7061677536        6.2442819409
 H         5.9758753385        1.8290035405        4.8981879365
 H         6.3642108584        5.2506866899        0.1261759815
 H         7.4794662587        4.3199018247        1.2389892659
 H         5.1803995277        0.5360877776       -0.2119630633
 H         5.0816087230        0.6673510416       -1.9597234514
 H         6.6004966248        2.7436219354       -3.2851486617
 H         6.3605568610        4.3574466176       -2.3291747027
 H         5.1666323208        3.1176911318       -2.1967119775
 H         9.0622966518        2.7064360170       -0.2864945109
 H         8.8859199840        3.1443758915       -1.9652524713
 H         8.5092109364        4.2681550502       -0.7076070872
 H         6.2239770338       -1.4865027743       -0.4436680673
 H         6.2929895494       -1.2908244582       -2.3360994009
 H         3.5835473078       -2.4097305062       -4.2184722219
 H         2.9031110534       -4.0077048788       -4.6758944716
 H         5.7127332718       -4.0280666696       -3.1561505920
 H         5.5919372053       -5.2474143238       -1.9855465299
 H         6.3140506487       -3.7372796739       -1.5111156921
 H         3.5943880028       -5.1080842205       -0.2811358529
 H         4.8214180155       -3.8726113982        0.3150316791
 H         3.0452966651       -3.5390940443        0.1679880200
 H         0.7462012517       -3.6175232656       -3.7019950291
 H         1.2409495933       -1.9852132520       -3.2560084313
 H         0.4813379265        0.3396729032       -3.6083146899
 H        -0.9060238486        1.1996867027       -3.8081155635
 H        -0.7146674852        0.3115923496       -2.3678227801
 H         0.5252857566        0.5087273857       -6.1044292018
 H        -1.0838952270        0.5679956684       -6.3175440787
 H        -0.2218493418       -0.5433973792       -7.3501339139
 H        -1.0772141217       -3.0092524417       -6.7978395523
 H        -1.8667824221       -2.9790997001       -5.2692245875
 H        -2.4039179167       -1.8460674623       -6.4747987408
 Na       -3.5241113511       -0.6948993480       -1.5594346965
