155

 C        -4.5268671515        3.2765976452       -3.1070542450
 C        -4.3744925309        2.2503044828       -1.9676179571
 C        -5.5529868181        2.1129456281       -0.9312808745
 C        -6.1463432791        0.7415654082       -1.3551131566
 C        -7.6575131210        0.5198138117       -0.9470929259
 C        -4.9247448763        1.8516712271        0.4611152023
 C        -6.4412589562        3.3015092052       -0.9519420947
 O        -3.3620449477        1.5473495986       -1.8868559323
 O        -5.5695900472       -0.0016610334       -2.0767007273
 C        -7.8643387303       -0.8430902606       -0.2555404939
 C        -8.1362785327       -0.7407037731        1.3519762461
 C        -8.4212427280       -2.0338959614        2.0932799990
 C        -7.0321844148       -2.6887703319        2.2299653985
 C        -5.7981846729       -1.8231638002        2.8052400741
 O        -7.8417091764        0.2757147384        1.9617569660
 O        -6.7174998531       -3.7679404125        1.7233384593
 C        -9.0925929275       -1.5563264649        3.5527481883
 C        -9.4254416564       -2.9697181150        1.2381214041
 C        -4.4600044775       -2.6235660454        2.5992392457
 C        -4.0254366964       -2.5546425423        1.1432727831
 C        -2.8913103216       -3.5596693544        0.5114801768
 C        -1.6272589568       -2.6556395893        0.4499412756
 C        -0.4784898511       -2.8616349100        1.4620563336
 C        -2.6163840065       -4.7161129413        1.4746826218
 C        -3.3734112351       -3.9537890032       -0.8938234092
 O        -4.5323091104       -1.7319298858        0.3837402311
 O        -1.5282463072       -1.7442835051       -0.3526351902
 C         0.3681922955       -1.6646746447        1.8730161937
 C        -0.5119451558       -0.4930103617        2.1442692739
 C         0.0428134771        0.9868207195        2.0382268728
 C         1.4652832732        1.1477847473        2.8437819779
 C         2.2520187009        2.3142108847        2.5197176654
 O        -1.6971971973       -0.6998176010        2.3077723475
 O         1.7761980197        0.2252021705        3.5694897543
 C         0.1922396644        1.2669244674        0.4438349004
 C        -1.1269010588        2.0299443775        2.5430294827
 C         3.3596832794        2.4237034577        3.5205984559
 C         3.5457569455        3.7660196423        4.2035248575
 C         4.9719840728        4.2017049062        4.7078215461
 C         6.1022368908        3.9813041759        3.5797076164
 C         5.9129880704        4.4485985262        2.0813639894
 C         4.9761085217        5.6654884247        5.2096572045
 C         5.3033083262        3.1744372137        5.8288373998
 O         2.5777187361        4.5355597281        4.3931576044
 O         7.1363243891        3.4447500598        3.8499102798
 C         6.8744177142        3.7155433817        1.1073052343
 C         6.1255735132        2.9712167816       -0.0265911064
 C         6.9095817161        2.4450883093       -1.3261365445
 C         6.9149528959        0.9533702835       -1.2389576868
 C         5.6078448532        0.3438447624       -1.7051562269
 O         5.0085433652        2.5514377189        0.1688138595
 O         7.7636313976        0.3038268731       -0.6527468490
 C         6.0936028755        2.9977912776       -2.5301895767
 C         8.2948499168        3.0489939109       -1.3147315143
 C         5.6617644779       -1.2075305440       -1.5242819753
 C         4.3512907017       -2.0478639549       -1.3607939242
 C         4.2444212383       -3.5524974078       -1.6090818189
 C         2.7782977648       -3.7577284777       -2.2243166349
 C         2.4523478258       -2.8341832636       -3.3620063730
 C         5.2886531814       -4.0999054525       -2.5142340592
 C         4.1575352713       -4.1881569913       -0.2504383340
 O         3.3331930866       -1.4089753171       -1.0893590204
 O         2.0377980202       -4.6617670826       -1.8811388639
 C         0.9688535762       -2.4537697602       -3.4421736670
 C         0.8328872208       -1.6784857195       -4.7766581852
 C        -0.5998905294       -1.0406482306       -5.1734772959
 C        -1.2833008628       -0.4609872628       -3.8603967218
 C        -0.6305430036        0.8114231372       -3.1949885226
 O         1.6789758270       -1.7591596920       -5.6629953282
 O        -2.2919769453       -1.0177911738       -3.4048123171
 C        -0.3037564895        0.0109985070       -6.2430762620
 C        -1.4360174563       -2.2258066573       -5.6560609773
 H        -3.5759698057        3.6814902297       -3.1960314664
 H        -4.8642243368        2.7178971730       -3.9986582611
 H        -5.2637088123        4.0358925431       -2.8298513274
 H        -8.0341257037        1.2688061227       -0.3154353194
 H        -8.1115117051        0.5831076176       -1.9064722582
 H        -4.2343206968        1.0663666589        0.5689831532
 H        -5.7064491388        1.6574850623        1.2093032059
 H        -4.4004888285        2.7557937342        0.7802259565
 H        -7.0801534631        3.3020591595       -1.8533122942
 H        -7.0754938122        3.4126963087       -0.0339351595
 H        -5.8560171446        4.2364750507       -0.8617481308
 H        -8.8141314337       -1.1822741963       -0.6977226458
 H        -7.1497153418       -1.6023429946       -0.2641191142
 H        -5.5992723949       -0.8449027670        2.3442071873
 H        -5.8564182295       -1.6578217662        3.8329229193
 H        -8.8116797475       -0.4853687337        3.6804981798
 H        -8.6234045119       -2.1046777334        4.2844227427
 H       -10.1123597689       -1.6209667032        3.4623519813
 H       -10.3728933965       -2.6188956215        0.8987773152
 H        -8.8638002556       -3.5073709926        0.3985183036
 H        -9.6944148194       -3.7375263869        1.9108230911
 H        -4.5993147229       -3.6202932832        2.9463206116
 H        -3.6925500745       -2.1995538889        3.3082767739
 H        -0.8303298755       -3.2785019788        2.4113865957
 H         0.0200149643       -3.6529060306        0.9090836648
 H        -3.6351408704       -5.1811167157        1.5614340105
 H        -2.4451555039       -4.3395455995        2.4500400124
 H        -1.8062463644       -5.4483733057        1.1683700062
 H        -4.1910490159       -4.5958855648       -0.8356432668
 H        -3.6508050810       -3.0005516242       -1.3646145338
 H        -2.5000300978       -4.3401773538       -1.4641357518
 H         0.9183711925       -1.9993266993        2.7534467553
 H         1.1725550745       -1.3648693366        1.2453367171
 H         2.5619605868        2.1303737709        1.5159342569
 H         1.6672402943        3.1894838267        2.7277565491
 H         1.1270614529        0.7958011391        0.1005366428
 H         0.3535940803        2.3086344501        0.3276509728
 H        -0.7057038014        0.8731853003       -0.0099084493
 H        -0.8954428011        3.0951888946        2.5534264526
 H        -1.8685252838        2.0043414292        1.7870802063
 H        -1.4126930394        1.7538451028        3.4515273087
 H         4.2658228871        2.1422527819        2.9946174901
 H         3.1737451763        1.7011238992        4.3830700897
 H         4.8524678104        4.4475910088        1.7080306009
 H         6.2845618598        5.5384845474        2.0344680614
 H         5.0152495580        6.2877899985        4.3327734343
 H         5.9141389602        5.9110704286        5.7009876717
 H         4.1516195368        5.9537567991        5.7902050181
 H         6.2170337880        3.4778004646        6.2795903538
 H         4.6483754097        3.2127494108        6.7102898056
 H         5.6238118640        2.2608643914        5.3101800361
 H         7.4272246710        4.5007627556        0.6794130883
 H         7.4495276118        2.9983766282        1.6160256124
 H         4.8006321484        0.7799019155       -1.1950208811
 H         5.4840445880        0.5924296992       -2.8267289439
 H         6.3432422513        2.4419580219       -3.4769837670
 H         6.3972155041        4.0239666330       -2.6857773502
 H         5.0012635209        2.8225808751       -2.3461751246
 H         8.9869868143        2.5677848692       -0.5900172676
 H         8.8535428814        2.9034745387       -2.2235827464
 H         8.2992109904        4.1626441693       -1.1050723232
 H         6.0766453333       -1.3995380901       -0.5159539000
 H         6.1732246586       -1.5166061952       -2.3751243375
 H         3.0185975370       -1.9269791092       -3.2437908492
 H         2.8076740476       -3.3449752576       -4.2960359619
 H         5.2478397956       -3.5699123845       -3.4954968587
 H         5.2108995516       -5.1614125164       -2.6410116361
 H         6.2686689212       -3.8337289001       -2.1230768895
 H         3.9421892124       -5.2955700949       -0.3268631510
 H         5.1263326051       -4.1709382739        0.1373157022
 H         3.3868625869       -3.5622322848        0.2656519035
 H         0.2492951020       -3.3496325474       -3.6382231077
 H         0.6215442306       -1.7025361590       -2.6141459856
 H         0.3079866343        1.0634003091       -3.6368272344
 H        -1.3392549721        1.6503748798       -3.3477363546
 H        -0.4462431797        0.7404071933       -2.1618108368
 H        -0.1817313557        0.9788793514       -5.7470531708
 H        -1.0889005276       -0.1036723455       -6.9640545535
 H         0.6195908265       -0.1755768745       -6.7956269966
 H        -1.8999798963       -2.7453746690       -4.8392491902
 H        -2.1860842746       -1.8213817362       -6.3560839776
 H        -0.7993494737       -2.9882023339       -6.1465859774
 Na       -3.4764735466       -0.4436264516       -1.4941539512
