155

 C       -12.9169246837       -5.3272937334        3.7537517127
 C       -12.3688797256       -3.9168576740        3.2794575485
 C       -10.8807218067       -3.4315702059        3.7465899541
 C       -10.0573879039       -2.8206196514        2.6235092877
 C       -10.1090825341       -3.7271712841        1.3514859822
 C       -11.1933210584       -2.3519970272        4.8661650102
 C       -10.0050439912       -4.6002757453        4.3093625850
 O       -12.9062056533       -3.1825303700        2.4883072462
 O        -9.4520709696       -1.7411472379        2.6951601275
 C        -8.7913062183       -3.8594490463        0.5905292490
 C        -7.7341511999       -4.6002668670        1.4237635152
 C        -6.2736341543       -3.9917372259        1.7133369983
 C        -5.7827806231       -3.4388589550        0.4044309718
 C        -4.3545311634       -2.6892797560        0.3010572472
 O        -7.9736259340       -5.6924326959        1.9838481246
 O        -6.4324137376       -3.4370659347       -0.6273776701
 C        -6.3492619161       -2.9001265832        2.7834549482
 C        -5.3459473362       -5.1361628549        2.2096040028
 C        -4.3619270824       -1.4686103776       -0.6223741294
 C        -2.9069603094       -1.1813430624       -1.1588752964
 C        -2.6140196200       -0.8069041025       -2.5898406765
 C        -2.3201138462        0.7060966944       -2.4470803706
 C        -3.3544071427        1.8672026511       -2.7554464782
 C        -1.3704850262       -1.6215554330       -3.0764655508
 C        -3.7719831269       -1.1682672594       -3.6735810694
 O        -2.0145925103       -1.2153526045       -0.2880266011
 O        -1.2226910347        1.1116843765       -2.0623642530
 C        -3.1470780816        3.0529399611       -1.7821802127
 C        -3.6270864169        2.6470916449       -0.4091108148
 C        -3.7849035859        3.8338429057        0.6483780154
 C        -3.1487531171        3.4537803733        1.9696360937
 C        -3.6712667277        2.1391259383        2.7219528899
 O        -4.0513505246        1.5705352602       -0.1153173095
 O        -2.1246748779        4.0550410127        2.3784352315
 C        -3.1941794297        5.1905154406        0.2173634546
 C        -5.3511568072        3.9118145150        0.8243194624
 C        -2.4493114329        1.6238768600        3.6009708822
 C        -1.2239752395        1.1939083126        2.7957092028
 C         0.1614785418        1.0405989221        3.4805272864
 C         1.3354579895        1.2100734775        2.3785909919
 C         2.0617210368        2.5440641826        2.2427690295
 C         0.3617694252        2.0300707910        4.6952771712
 C         0.3563838359       -0.3990224369        4.0663868539
 O        -1.2858319195        0.7839469924        1.6485964527
 O         1.7541361102        0.2768678559        1.6889333040
 C         2.8363962058        2.6942120689        0.8927379428
 C         1.8985312765        2.6392726664       -0.3196226129
 C         2.5224892865        2.2979381200       -1.7004219284
 C         2.7068392542        0.7534921255       -1.8559791296
 C         3.7429915386        0.3891132459       -3.0166624081
 O         0.7496535149        2.5589908830       -0.0550853889
 O         2.0927767675       -0.1487682205       -1.3664390204
 C         1.5410394732        2.8352899802       -2.7106487664
 C         3.9064006631        3.0520164438       -1.8770678414
 C         4.7132060664       -0.7464199332       -2.5962837646
 C         5.7770977263       -0.3464265834       -1.5571644236
 C         7.1446125925       -1.1516850663       -1.5699706515
 C         8.0863632373       -0.5174923541       -2.7111508237
 C         9.1304502164        0.6405135539       -2.1891574945
 C         7.6624131180       -1.1266368608       -0.1068333408
 C         6.9682118195       -2.7149516763       -1.8920782235
 O         5.6200192161        0.5840249992       -0.7778098095
 O         7.9115773783       -0.6604759245       -3.8766695059
 C        10.2619514836        0.7828728048       -3.2281265757
 C        10.8619769871        2.2417413677       -3.2283495864
 C        12.0887660961        2.5171039502       -4.1619951891
 C        13.3587240078        1.7321393387       -3.6920772820
 C        13.9162454675        2.1381189882       -2.3112009293
 O        10.5401347983        3.0258227560       -2.3625911565
 O        13.8049798374        0.7880443491       -4.2855031982
 C        11.6275448406        2.0515424892       -5.5928743057
 C        12.3490207119        4.0620300908       -4.1131310941
 H       -12.1262114346       -5.9303658864        4.1786747930
 H       -13.7209375138       -5.3254174066        4.4767143054
 H       -13.3345934660       -5.7795215956        2.8623898642
 H       -10.3758632433       -4.7551480590        1.5934758942
 H       -10.8275967477       -3.4106965919        0.6383382290
 H       -10.4229294468       -2.3034589618        5.6183482993
 H       -12.0681303228       -2.7412595041        5.2988679126
 H       -11.4200963042       -1.3558770629        4.4317617596
 H       -10.5940910642       -5.2518198323        4.8918394554
 H        -9.4758961022       -5.0943296503        3.4359824755
 H        -9.3739479161       -4.1128909116        5.0195277346
 H        -8.9673442744       -4.5056968024       -0.3707404139
 H        -8.5995432582       -2.8084105394        0.3244240595
 H        -4.0175414427       -2.2998606454        1.1868964589
 H        -3.6789471382       -3.4133320312       -0.0328486575
 H        -5.4154873626       -2.4599814893        2.6797126546
 H        -6.4796424579       -3.4618082970        3.7386284360
 H        -7.0993877701       -2.2059521321        2.5341613380
 H        -5.6393221116       -5.5180437300        3.1783976619
 H        -5.4418398067       -6.0116751821        1.6072341622
 H        -4.2777374069       -4.8697868127        2.2760105219
 H        -4.7273848541       -0.6517104650        0.0196921492
 H        -5.0288832858       -1.6678004949       -1.4054769907
 H        -3.2982577515        2.3396420892       -3.6984048837
 H        -4.3967183397        1.6391654793       -2.7645427774
 H        -0.4723626400       -1.4446413311       -2.3894734111
 H        -1.0784286444       -1.3351805621       -4.0493706625
 H        -1.7028649592       -2.6809844306       -3.0391603993
 H        -3.5155757719       -2.1868794144       -3.9228862099
 H        -4.7063016321       -0.8539206233       -3.3425287687
 H        -3.4169248992       -0.6598845424       -4.5541933526
 H        -1.9862137737        3.2379086763       -1.6546935167
 H        -3.5216440900        3.9378651338       -2.2671918842
 H        -4.5169437668        2.1838073267        3.3947985952
 H        -3.9192132881        1.3259533504        1.9756912954
 H        -2.1358284777        5.2684052248        0.0306581812
 H        -3.1911489805        5.9339862380        0.9788173638
 H        -3.7200838273        5.6545098879       -0.5872617139
 H        -5.9253701332        4.1212826039       -0.1052226148
 H        -5.7315039657        3.0286213240        1.2798133959
 H        -5.5750314980        4.7339803249        1.5176667975
 H        -2.7684549181        0.6737420773        4.0241815322
 H        -2.2291986188        2.4089883156        4.3976354722
 H         1.3448068698        3.2922356142        2.2880248917
 H         2.7594535872        2.5821949127        3.1579055438
 H         0.1430711056        3.0914230516        4.4522651213
 H         1.2683154364        1.9150121106        5.2306420136
 H        -0.3792687315        1.7592739412        5.5221734818
 H         1.3842296671       -0.7186069697        4.3271006688
 H        -0.2855788733       -0.5447631548        4.9764563076
 H         0.0293733102       -1.1079703176        3.3830665407
 H         3.3249779595        3.6547228646        0.7994108333
 H         3.5333671237        1.8561316982        0.7988952254
 H         3.1149865037       -0.2242598969       -3.6634136950
 H         4.2130806185        1.2240996744       -3.5321202188
 H         1.2195204145        3.8674958184       -2.4347518862
 H         0.6255706294        2.1811655111       -2.7402394541
 H         1.8825482051        2.9357128380       -3.7852294874
 H         4.1392393440        3.4390897097       -2.7944702653
 H         3.8508922952        3.9491989182       -1.2857200196
 H         4.6453495288        2.3535201306       -1.4971139544
 H         5.2058517423       -1.1315430381       -3.5178624207
 H         4.1027207417       -1.5050988536       -2.1546232474
 H         8.5497161032        1.5953346690       -2.1434363986
 H         9.5050284785        0.4767946734       -1.1603457723
 H         7.5205692396       -0.1788897214        0.4848436254
 H         8.6736362754       -1.4085332551       -0.1394848215
 H         7.0533290429       -1.8322918070        0.4742020772
 H         6.8873369763       -3.0018654947       -2.9350831430
 H         7.7037993526       -3.2936999215       -1.3414104494
 H         5.9628859742       -2.9840373291       -1.4208966443
 H        11.1120893433        0.1618876616       -3.0310951225
 H         9.8351347458        0.4509483817       -4.1570979427
 H        14.8091627850        2.8426276044       -2.4343669782
 H        13.0686458613        2.6805052857       -1.7857205018
 H        14.1800239890        1.3178959996       -1.6011250657
 H        10.5567723246        2.4038474176       -5.8195654953
 H        11.6766183151        0.9724841470       -5.6794377867
 H        12.3282511906        2.3645769424       -6.3799455709
 H        13.0754728094        4.4489538832       -4.8392085424
 H        11.3782452270        4.6103689885       -4.1573667928
 H        12.7751967618        4.3945126675       -3.1152831593
 Na        0.0902602604        0.2619845157       -0.1954405329
