155

 C        -5.8930775246        2.8101008004       -3.5873356104
 C        -5.1805448580        2.1084862169       -2.4052322917
 C        -5.9825707745        1.6155677347       -1.0870851050
 C        -6.4608167949        0.1557182412       -1.4170600874
 C        -7.9143237841       -0.3544167708       -1.1225433764
 C        -5.0769015012        1.4801040761        0.1675269512
 C        -7.0811693668        2.6642027788       -0.7447712002
 O        -3.9447567337        1.8982909554       -2.3792247405
 O        -5.6496953251       -0.5360242897       -2.0346379642
 C        -7.7607178531       -1.7912542368       -0.6937609950
 C        -8.0492131030       -1.9449272939        0.8669823175
 C        -7.5798300625       -3.3623066407        1.4643922413
 C        -6.1225600957       -3.6878711586        1.1109858696
 C        -5.0717872087       -3.4599686146        2.1920216821
 O        -8.6104986916       -1.1127244651        1.5792481441
 O        -5.7008101236       -4.2132130813        0.0874609666
 C        -8.0081952583       -3.3625041937        2.8793829418
 C        -8.4262270365       -4.4339472971        0.6168548282
 C        -3.6669842568       -3.6898691898        1.5418066736
 C        -3.4252168111       -2.7408398547        0.4050958693
 C        -2.0337773926       -3.0324450080       -0.2962906854
 C        -1.2337150263       -1.7580858371        0.0179323352
 C         0.0611092958       -1.6657955942        0.8501252423
 C        -1.2348155675       -4.2986590498        0.1226307448
 C        -2.2419432189       -3.1878683567       -1.8870078760
 O        -4.0701177098       -1.7590226526        0.1403819822
 O        -1.4832269413       -0.6617030426       -0.5566385449
 C         0.2991683360       -0.1538133850        1.3298872971
 C        -0.5597475351        0.0838735584        2.6872501473
 C        -0.5301998096        1.5308511539        3.2693967808
 C         0.7752194161        1.7692124735        3.9264449697
 C         1.5961499310        3.0838189017        3.6155025311
 O        -1.2440103589       -0.7389137163        3.2000158717
 O         1.2008507524        1.0462625199        4.8229698568
 C        -0.9775712770        2.5293579427        2.1861677376
 C        -1.5732333770        1.7080351468        4.4569352270
 C         2.3261084851        3.7648125759        4.8487901250
 C         3.5322041144        4.8482621671        4.6030199909
 C         4.9494472081        4.4188483069        4.9104664607
 C         5.3654571171        3.4690199418        3.7700067150
 C         5.8520236607        4.0220306510        2.3754274347
 C         5.9165085031        5.7327956314        5.0600260247
 C         5.1835451852        3.6615378720        6.2166992780
 O         3.2624705860        5.9131026035        4.2292637422
 O         5.1178723538        2.2605087463        3.9263224371
 C         6.5937371657        2.9609044136        1.5399914380
 C         6.1876922953        3.0965734923        0.0968912425
 C         6.9259954164        2.1884553386       -1.0222784629
 C         6.8120034214        0.6994414727       -0.6559331095
 C         5.3841861842        0.0922776943       -0.5274585268
 O         5.3643561831        3.9412910260       -0.2777419953
 O         7.7492855407       -0.0887110437       -0.5605476004
 C         6.1935990018        2.3145564601       -2.3884227310
 C         8.4437292401        2.5715967942       -1.1768872809
 C         5.3062773632       -1.4541533107       -0.4460229277
 C         3.8793736895       -1.9509535117       -0.6234589768
 C         3.5734009657       -3.4781303174       -1.0034620472
 C         2.5193134213       -3.5578130908       -2.1232961126
 C         2.6790713978       -2.8214006937       -3.5015257525
 C         4.9131918565       -4.0794440884       -1.5120490291
 C         3.1805831411       -4.2650305828        0.2311473502
 O         2.9226170385       -1.2375871278       -0.3214987981
 O         1.4346858060       -4.0966277261       -1.9657503155
 C         1.4511230832       -2.0233243521       -3.7662290314
 C         1.3098044501       -1.2612253889       -5.0620227730
 C        -0.2988697030       -0.8309570941       -5.4921860595
 C        -1.0000928688        0.0171373842       -4.3990052478
 C        -0.3005354271        1.2408828201       -3.8975358762
 O         2.2081735062       -0.9395871005       -5.7972791078
 O        -2.0345414964       -0.3565128073       -3.8532969669
 C        -0.2073158233       -0.0757357093       -6.9218633148
 C        -1.0936019753       -2.0756255396       -5.7598863323
 H        -5.9358057507        1.9384917607       -4.3615873780
 H        -6.8555741000        3.1732822437       -3.2260308401
 H        -5.2617798306        3.6107251664       -3.9937271375
 H        -8.6443400166        0.1896330837       -0.4599774686
 H        -8.2331470939       -0.4077289927       -2.2008863090
 H        -4.2828024400        0.7708936737        0.0627902903
 H        -5.6029068893        1.0723649617        0.9991048653
 H        -4.5871567098        2.3697238847        0.4986594167
 H        -7.8754844696        2.5236473854       -1.4753644990
 H        -7.4849596063        2.4740315891        0.3256760986
 H        -6.6417544251        3.7057355731       -0.7572814673
 H        -8.4429219766       -2.4758414496       -1.3268160718
 H        -6.8324277625       -2.3796198788       -0.8483735391
 H        -5.0752495813       -2.3612172350        2.4348031683
 H        -5.3952240421       -4.1112759325        3.0089347780
 H        -7.5672335343       -2.4567668293        3.3112673301
 H        -7.8512463484       -4.2880975234        3.5353038518
 H        -9.1593833892       -3.2278959903        2.9018374013
 H        -9.3374312218       -3.9058430450        0.3696903555
 H        -7.9251946106       -4.6550383696       -0.3504088523
 H        -8.5917348684       -5.3347559492        1.0987502608
 H        -3.5440995099       -4.6824397699        1.1119387562
 H        -2.9134502929       -3.4216031309        2.2872861887
 H         0.1893051339       -2.2809270937        1.7139494594
 H         0.9853262422       -1.8923131788        0.2028293732
 H        -1.4567763471       -5.1280289905       -0.5782701770
 H        -1.2894280226       -4.6283030345        1.1327292781
 H        -0.1846928715       -4.1018754892       -0.0130123959
 H        -1.4736602464       -3.7504259575       -2.3589096114
 H        -3.0882782326       -3.8098730049       -2.0862896372
 H        -2.3517297962       -2.2377238961       -2.4374427351
 H         1.4130992675       -0.1470095092        1.6335107454
 H         0.1158419867        0.5842736208        0.5771288299
 H         2.4718372725        2.7914512485        2.9889713088
 H         1.1399699086        3.9086511068        3.0904188150
 H        -0.1820670026        2.7140328112        1.4467848974
 H        -1.2885981273        3.4226400069        2.6418295215
 H        -1.7630318876        2.0657810369        1.6005440104
 H        -1.6667683252        2.8073108096        4.6316869291
 H        -2.5318878459        1.2490600512        4.0391099416
 H        -1.3556142426        1.0627894101        5.3731717653
 H         2.5493607431        3.0122070257        5.5525207502
 H         1.5489040544        4.3550248134        5.3943865977
 H         4.8936124655        4.2565384462        1.9424697941
 H         6.4608482453        4.9374821994        2.4145104907
 H         5.6396358582        6.5105317311        4.2736844180
 H         7.0009545853        5.4986958384        5.0790638379
 H         5.7293276341        6.2829547792        6.0039187731
 H         6.1350579149        3.1188622262        6.0805077351
 H         5.3163952488        4.3022633462        7.1212716322
 H         4.4747248354        2.8192905768        6.3386274282
 H         7.6681485834        3.2686741701        1.6519556544
 H         6.3282672681        1.9843730823        2.0020600225
 H         4.8676805137        0.4101992227        0.3249389816
 H         4.7052521520        0.3875360027       -1.3257822484
 H         6.7588231283        1.7329972829       -3.1812749572
 H         6.1470464855        3.3021999479       -2.7607677569
 H         5.1213867174        2.0885072344       -2.2914157679
 H         9.0505136125        2.0298985902       -0.3769078225
 H         8.6494314178        2.3576696119       -2.2430679281
 H         8.6616003585        3.6423176456       -0.9700730516
 H         5.6546059239       -1.7686988027        0.5687617819
 H         6.0734192524       -1.7162330828       -1.2353739762
 H         3.4787082608       -2.1485897906       -3.6251214570
 H         2.7920860154       -3.6351334294       -4.1934272064
 H         5.2286283062       -3.7010493144       -2.5367152158
 H         4.7592235614       -5.1228136329       -1.7081944520
 H         5.7302324092       -4.0058674115       -0.8729802162
 H         3.1656649679       -5.3418019918       -0.0134651720
 H         3.7248025939       -4.0590424313        1.2269745439
 H         2.1517480146       -3.9550974591        0.4989819168
 H         0.6134750341       -2.8439411245       -3.7692999323
 H         1.3327311478       -1.2384204456       -2.9392044120
 H         0.8374021601        1.2833141030       -3.9954547288
 H        -0.5051484451        2.2063496153       -4.3429000562
 H        -0.6522910008        1.4726707405       -2.8417743034
 H         0.9196661499       -0.1788460324       -7.1210912601
 H        -0.5265738158        0.9316730257       -6.8531723048
 H        -0.7055566764       -0.5678553125       -7.7692298668
 H        -2.1074081415       -1.9778489534       -5.5388778814
 H        -0.9213499869       -2.5868552477       -6.6967291158
 H        -0.8318545472       -2.8372580267       -5.0174066118
 Na       -3.2597557108       -0.1920188742       -1.6957660214
