155

 C        -5.8126820152        2.8351921925       -3.5536543743
 C        -5.0595686168        2.1204668575       -2.3524591031
 C        -5.9762390688        1.6068371721       -1.1906537248
 C        -6.3333257910        0.0823556116       -1.3641599886
 C        -7.6983729098       -0.3527632658       -0.9205417465
 C        -5.2060258288        1.5575999385        0.1315104472
 C        -7.2738799648        2.4531908661       -0.9658395227
 O        -3.8699601707        2.0277150728       -2.2663852378
 O        -5.6597206461       -0.6336329100       -2.0916426550
 C        -7.8281067378       -1.8546114843       -0.7685288324
 C        -8.0155614910       -2.2342828486        0.7976306265
 C        -7.7509804903       -3.7011749934        1.3483266813
 C        -6.1498594910       -3.9320799981        1.1905105668
 C        -5.0504502006       -3.2450066091        2.0819570687
 O        -8.2920980047       -1.3496874511        1.5282868163
 O        -5.8262378597       -4.5352260808        0.2161226604
 C        -8.1247840847       -3.7954120849        2.8223158300
 C        -8.6027686961       -4.7017854103        0.5397489707
 C        -3.5358346771       -3.5159921052        1.6803157462
 C        -3.1544268631       -2.6222467625        0.4410601865
 C        -1.8531969733       -2.9094404725       -0.4594014606
 C        -1.1074475269       -1.4958538247       -0.0583801037
 C        -0.1034617148       -1.5028464118        1.0301420656
 C        -1.0713288714       -4.1694373761       -0.0270015840
 C        -2.3607331214       -3.0362457992       -1.9771345756
 O        -3.9797552936       -1.8194863676       -0.0121492794
 O        -1.4972269534       -0.4986366733       -0.5886003530
 C         0.3607951699       -0.1485435315        1.5954461289
 C        -0.5988721908        0.2255520186        2.7358473321
 C        -0.6599884619        1.6933427152        3.3957007239
 C         0.7756760170        2.0662770859        4.0234118931
 C         1.5587621620        3.3051931388        3.8105300336
 O        -1.2763583951       -0.6643536056        3.2622962084
 O         1.2138464697        1.2848579113        4.8115592926
 C        -1.0158753080        2.8463971753        2.3483927966
 C        -1.7006999014        1.5583451770        4.4579746911
 C         2.4257622885        3.6322287731        5.0951939088
 C         3.4679107202        4.6689696270        4.7174668028
 C         4.9438888280        4.3729612838        4.9393126698
 C         5.3641960944        3.3240426751        3.7001745232
 C         5.9461695072        4.0164384705        2.4410386275
 C         5.7389126743        5.6186351652        4.8982512223
 C         5.2278741759        3.6736271516        6.3103087218
 O         3.1744893991        5.7430767854        4.1077625711
 O         4.9929603001        2.2046482422        3.7848913226
 C         6.7259325297        3.0373293674        1.4634771164
 C         6.1157116762        3.0563695783        0.0239919249
 C         6.9499032025        2.1810291377       -0.9789795303
 C         6.8105807406        0.6446463697       -0.5514993713
 C         5.4520626701        0.1559439725       -0.2971576586
 O         5.1994736257        3.7561388444       -0.3215804375
 O         7.8288707743       -0.0168492766       -0.5327665426
 C         6.4582015178        2.3235902833       -2.4148431660
 C         8.4139402460        2.6614932619       -0.9685994450
 C         5.2991312600       -1.4290696543       -0.2817003048
 C         3.8748964923       -1.8884253910       -0.6144991182
 C         3.6030672386       -3.3931872914       -1.0228700023
 C         2.4050253273       -3.4528756849       -2.0888150180
 C         2.5603290725       -2.6625064182       -3.3776761669
 C         4.7616894852       -4.1195380696       -1.7122681586
 C         3.1048659765       -4.1446293450        0.2274689828
 O         2.8742606948       -1.2014289086       -0.4861054442
 O         1.4979471994       -4.2538209519       -1.9297782320
 C         1.2429099393       -1.7850813201       -3.5776376573
 C         1.2223738317       -1.3431490055       -5.1048540410
 C        -0.1804872767       -0.8197715755       -5.6125631599
 C        -0.8771397456       -0.0129462422       -4.4817879933
 C        -0.2552217395        1.2258656306       -3.9247108025
 O         2.2299711881       -1.0888863042       -5.7725377311
 O        -1.9537800037       -0.4144206407       -4.0329780394
 C        -0.0634784233       -0.0117538768       -6.8597857181
 C        -0.9669767912       -2.1921718112       -5.8400241118
 H        -6.6255068880        2.2836106908       -3.8935938351
 H        -6.1388431891        3.7986819305       -3.1358724452
 H        -5.0576431740        2.9946284999       -4.2951887469
 H        -7.6487503070        0.0161297096        0.0851109920
 H        -8.4587938968        0.1428318620       -1.4613044416
 H        -4.2349783772        1.0968697847        0.0835700862
 H        -5.6950855260        1.0965562954        1.0083519153
 H        -4.9123576007        2.5751113173        0.4624728273
 H        -7.8124254117        2.5040862919       -1.9128867797
 H        -7.8646359177        2.1371601625       -0.1745794224
 H        -6.8985006297        3.4068463865       -0.7355930359
 H        -8.5568811701       -2.2684947307       -1.3614932918
 H        -6.9677653504       -2.4289362643       -1.1084514435
 H        -5.2528994075       -2.2255928254        2.1296686820
 H        -5.2294684296       -3.6576359590        3.0810311390
 H        -7.5003685863       -3.0729379998        3.3820019523
 H        -8.0924125384       -4.7982984498        3.2737810784
 H        -9.1457195618       -3.5168694964        2.9201971754
 H        -9.6407757661       -4.2446660822        0.4101086568
 H        -8.1874488099       -4.9300155720       -0.4342526364
 H        -8.6441223496       -5.7326608244        1.1252178638
 H        -3.5215746445       -4.5588248225        1.3412970030
 H        -2.9554858933       -3.3311294676        2.5684672423
 H        -0.4073665496       -2.1186320381        1.9324770463
 H         0.7465385960       -2.0409311843        0.6857445441
 H        -1.7725596428       -4.9237899832        0.2981132804
 H        -0.3751554214       -3.9930806423        0.7909730843
 H        -0.3946771008       -4.5004623450       -0.8548060283
 H        -1.6362315874       -2.5897668875       -2.6830191958
 H        -2.3775029320       -4.0991896086       -2.2600237704
 H        -3.3217351575       -2.5714385157       -2.2247391243
 H         1.3347070441       -0.2515659372        1.9241251838
 H         0.3081891816        0.6868457068        0.8613772768
 H         2.3160898188        3.1633161207        3.0753933414
 H         1.0506021433        4.2542789383        3.6184001549
 H        -0.3648068281        3.0079381504        1.4992298725
 H        -1.0965513899        3.7683460991        2.9929255634
 H        -2.0842996250        2.7313101333        2.0564610053
 H        -1.5845158868        2.4422052680        5.0678577679
 H        -2.6657404774        1.4426679173        4.0430996281
 H        -1.5710219755        0.6412815623        5.0592801120
 H         2.8936034617        2.6971525259        5.5104291418
 H         1.8496790802        4.0052819947        5.9241927301
 H         5.0652801933        4.4466388644        1.8006071467
 H         6.6256074375        4.8568069242        2.7154358836
 H         5.5213807736        6.0578631537        3.9541031943
 H         6.8018730412        5.3383917912        5.0572071031
 H         5.5661318994        6.3566487727        5.6349337122
 H         6.2872565153        3.6912603863        6.6359409986
 H         4.5524547357        4.0152160615        7.1102764498
 H         4.9338882335        2.6190639461        6.1148394071
 H         7.7315094095        3.3534172876        1.4233796142
 H         6.6166694063        2.0554388900        1.8890160996
 H         5.0224900593        0.4812091279        0.7077451111
 H         4.7696446117        0.6392811791       -0.9809659830
 H         7.0357846425        1.6339609944       -2.9593529534
 H         6.7228365028        3.3192412732       -2.8606899594
 H         5.4002065346        2.1725422954       -2.6152411967
 H         9.0088482428        1.9949317122       -0.4092851692
 H         8.7018942992        2.7523734876       -1.9848943211
 H         8.5410893975        3.6050897679       -0.4388693862
 H         5.5223680825       -1.6955743584        0.7349397916
 H         6.0569828900       -1.6596761368       -0.9905056201
 H         3.4503223395       -1.9881379872       -3.5068736808
 H         2.6247747314       -3.4122700509       -4.2098739692
 H         5.1774050260       -3.5184861922       -2.4634394247
 H         4.4844174658       -5.0060852036       -2.2922880015
 H         5.6255153708       -4.3938911895       -1.0122749396
 H         2.6811236224       -5.1191569334       -0.0367417605
 H         3.8082996979       -4.2336981268        0.9497611302
 H         2.2646669806       -3.6321948450        0.7076028627
 H         0.4158780155       -2.3904518384       -3.3632038315
 H         1.2649457359       -0.8960012124       -3.0233807502
 H         0.5321453529        1.6662513178       -4.4316295095
 H        -0.9783606387        2.0535364379       -3.9178168612
 H        -0.1382895626        1.1919204272       -2.9075471840
 H         0.6603414876       -0.4591421608       -7.4941165306
 H         0.3282340014        0.9958060092       -6.5409988340
 H        -1.0213238780        0.0877849414       -7.3888620597
 H        -2.1010396032       -2.2034103397       -5.7100186354
 H        -0.6813759925       -2.6565631572       -6.7958703520
 H        -0.6707698155       -2.9935694590       -5.1322468670
 Na       -3.3889644539       -0.1067813680       -2.0264327402
