155

 C        -5.6937748841        3.2542060261       -3.4105135430
 C        -5.2908467983        2.1658734551       -2.4387102479
 C        -6.3290821314        1.6322979812       -1.3098887907
 C        -6.4815300310        0.0651437042       -1.5652853712
 C        -7.6958821573       -0.4982944287       -0.8030938509
 C        -5.7897181263        1.7654086448        0.0934682992
 C        -7.6491824088        2.4204875962       -1.3786222498
 O        -4.1407163685        1.7488355382       -2.4592311907
 O        -5.7111937774       -0.5678142740       -2.1990211443
 C        -7.6129783656       -2.0689054465       -0.7089332922
 C        -7.7759751783       -2.6804734169        0.7303765672
 C        -7.5412000248       -4.1284479354        1.0716158362
 C        -5.9065751748       -4.3545920419        1.0085855207
 C        -4.9764360851       -3.1050853420        1.5863042208
 O        -8.0944882268       -1.9819392470        1.6356650819
 O        -5.4250237873       -5.3572297608        0.5428658519
 C        -8.0136358718       -4.5450863303        2.4901603505
 C        -8.1021093389       -5.0190211296       -0.1006867643
 C        -3.4978723415       -3.3830643113        1.3902251984
 C        -2.9564733954       -2.4107466319        0.3224505434
 C        -1.4452482626       -2.5953911923       -0.1383709242
 C        -0.9183207691       -1.1238262057       -0.0054504965
 C         0.0917088663       -0.7993417572        1.0826705332
 C        -0.7864158662       -3.8697526217        0.5675748231
 C        -1.6660220861       -2.9335401586       -1.6405149034
 O        -3.7021320054       -1.5720546750       -0.1059349665
 O        -1.2867615759       -0.2480985604       -0.8289015126
 C         0.0382307305        0.5298642973        1.7758264101
 C        -0.9491225401        0.6902150490        2.8494027535
 C        -1.0688275339        1.9914569287        3.6504583474
 C         0.3887270844        2.0026781165        4.4420348155
 C         0.9821988079        3.2855688888        4.9672208199
 O        -1.8162495938       -0.1779053235        2.9623620151
 O         1.0157081664        0.9687057411        4.4938587307
 C        -1.2084085382        3.1986185387        2.7734643544
 C        -2.3109167883        1.9310299908        4.6151324389
 C         2.4982623676        3.0870565559        5.2144815119
 C         3.3665880985        4.3344135256        4.8035781043
 C         4.9246745553        4.3982521812        5.0376573525
 C         5.3549580954        3.4649248834        3.6874571287
 C         5.9432085767        4.1299850859        2.4313771864
 C         5.3729145274        5.8719164629        4.7726825492
 C         5.2865266966        3.7982970861        6.3566787935
 O         2.8581115146        5.2216790858        4.1244969433
 O         5.2801153838        2.2214344894        3.7080395983
 C         6.8987728512        3.2444807459        1.5762079922
 C         6.3454983475        2.9004983532        0.1425997591
 C         7.1685158370        2.0732434697       -0.8765730620
 C         6.9286608435        0.5850825605       -0.5334120659
 C         5.5112677237        0.1900455436       -0.3368603953
 O         5.2445059177        3.2546450306       -0.1843004273
 O         7.8719224026       -0.1595481717       -0.3692587071
 C         6.6418537337        2.3095970827       -2.2583800662
 C         8.7241477082        2.5011887613       -0.8897660397
 C         5.2835611257       -1.3973505787       -0.4372365714
 C         3.8833622587       -1.7804087511       -0.6986287080
 C         3.5971254181       -3.3484214968       -1.0301856094
 C         2.3988601182       -3.4377664900       -2.0314586151
 C         2.5346952293       -2.7942259554       -3.3897322763
 C         4.8416079256       -4.0596214455       -1.6234003676
 C         3.3176688311       -3.9838057142        0.3109800988
 O         2.8897365387       -1.1295073336       -0.5677093217
 O         1.3180163468       -3.8182656459       -1.6400883507
 C         1.1813182324       -2.0545225579       -3.7176788278
 C         1.1547155932       -1.2491220779       -5.0499127203
 C        -0.1496999606       -0.7822885948       -5.7110271065
 C        -1.1014120021       -0.0968799683       -4.6032171200
 C        -0.9168508191        1.3277104202       -4.1890211768
 O         2.1943056609       -1.2019556999       -5.7141470492
 O        -2.0160502544       -0.7895008057       -4.1634986676
 C         0.1279097692        0.4114827937       -6.6937013339
 C        -0.7830293350       -2.0049992772       -6.4411088364
 H        -6.0630448588        4.0833739438       -2.9073617515
 H        -4.7787635943        3.6090860228       -3.8228962859
 H        -6.3570575888        2.7655639978       -4.1254874291
 H        -7.6257352228       -0.2217736212        0.2073798207
 H        -8.5582926731       -0.0921863668       -1.3119239716
 H        -4.8291309894        1.1841591736        0.2689998938
 H        -6.4439784169        1.4622907566        0.8921565433
 H        -5.5200678163        2.7700269132        0.4288476975
 H        -8.0355625446        2.5266448098       -2.3650449894
 H        -8.3776210710        1.9814824068       -0.7945241316
 H        -7.4710713488        3.3997986693       -0.9780494849
 H        -8.4047159929       -2.5078268155       -1.3870960619
 H        -6.6159160151       -2.3947884141       -0.9633760291
 H        -5.2530233440       -2.0537572041        1.1584114336
 H        -5.3875009755       -2.9453256853        2.6038869615
 H        -7.5441851493       -3.8688214963        3.2486862414
 H        -7.5916537162       -5.4411176119        2.7056303205
 H        -9.0186010995       -4.4791146808        2.7530448660
 H        -9.1146672289       -4.7604808491       -0.2611438716
 H        -7.5250191379       -4.7304676896       -0.9531978151
 H        -8.1147432265       -6.0991872627        0.0192711784
 H        -3.3228457394       -4.3855809737        0.9841656936
 H        -2.8800793743       -3.1334954946        2.2993005753
 H         0.0693671292       -1.6190506799        1.8143974080
 H         1.0885088445       -1.0166171738        0.6422941176
 H        -1.3797110363       -4.7233886002        0.2164925394
 H        -0.9380213187       -3.7201400536        1.7231849980
 H         0.2610268124       -3.8184573137        0.2918327809
 H        -1.7373787162       -1.9740372916       -2.2119330509
 H        -0.8929954481       -3.6130425336       -2.0377617516
 H        -2.5498181089       -3.5273704353       -1.8004002394
 H         1.0771377287        0.8335460554        2.1407140511
 H        -0.1788913220        1.3523576068        1.1096989306
 H         0.7876712516        4.0688701783        4.1410980603
 H         0.3697189035        3.5099341608        5.8520735039
 H        -0.2652934883        3.3745171649        2.1907461215
 H        -1.1114597783        4.0676418875        3.4826613691
 H        -2.0764127705        3.3314697412        2.1090818749
 H        -2.2755208797        2.6498106857        5.4112595932
 H        -3.1509699228        2.0246939337        3.9268725961
 H        -2.3108779632        1.0060612917        5.0486789333
 H         2.6509626283        2.2591538347        4.5444956936
 H         2.6983878210        2.5845206932        6.1887200537
 H         5.1956263382        4.6229360466        1.8755206388
 H         6.6905685948        4.8739597415        2.7698972682
 H         5.0416947218        6.0985466014        3.8154488931
 H         6.4044070145        5.9368813570        4.7723321388
 H         4.8375254105        6.5051473106        5.5260478614
 H         6.3293771426        3.5074581433        6.2404630792
 H         5.1181981585        4.4894690578        7.2189656228
 H         4.6079250146        3.0021598154        6.5441777842
 H         7.8900538454        3.7527941426        1.5776696600
 H         7.1547874039        2.3716356470        2.1874464708
 H         5.1076406814        0.5154190164        0.6176579922
 H         4.7650685721        0.6532298034       -1.0766867647
 H         6.8662735197        1.6182790783       -3.0765346163
 H         6.9935884032        3.2830843688       -2.5093880553
 H         5.5794077960        2.2228801010       -2.2699451825
 H         9.2331347705        2.3127758201       -0.0114549426
 H         9.1673048523        1.8335806331       -1.6056595880
 H         8.8448579535        3.4793037115       -1.2047091877
 H         5.5724315188       -1.8655577297        0.6130997753
 H         5.9302272910       -1.8316967413       -1.2205611428
 H         3.3794843890       -2.0966080621       -3.4025707454
 H         2.7608326958       -3.5020425346       -4.2000324544
 H         5.3082335275       -3.4515136681       -2.4244928444
 H         4.5647361958       -5.0169175128       -2.1271235392
 H         5.6382946518       -4.3462091376       -0.9800861610
 H         3.3127331183       -5.0589013672        0.2417458352
 H         4.0449082036       -3.7777835911        1.0922105099
 H         2.3443269499       -3.7360504737        0.6659128490
 H         0.2727740205       -2.6606202278       -3.6444560856
 H         1.0838118171       -1.3096089276       -2.7620297505
 H        -0.6902142815        2.0378712568       -4.9336636598
 H        -1.7147991024        1.7465209209       -3.5899775698
 H        -0.0632220721        1.4285588921       -3.5066092927
 H        -0.5537441803        1.2054543417       -6.7641865994
 H         0.3143493615        0.1201077769       -7.7980434665
 H         1.0112936272        0.8757505978       -6.2834666474
 H        -1.7908396463       -1.8132815061       -6.8736799336
 H        -0.1822821329       -2.3316594848       -7.3098441673
 H        -0.7498043974       -2.9066964404       -5.7969474359
 Na       -3.1735035092       -0.3406800546       -2.1678185466
