155

 C        -5.8796227719        3.5363748562       -3.2861976238
 C        -5.4812253452        2.2305405422       -2.5313808454
 C        -6.4664833156        1.6355795490       -1.4566091338
 C        -6.5197811882        0.0299482221       -1.5368329797
 C        -7.7583595336       -0.8056170589       -1.0777287708
 C        -5.7134727371        1.9653944598       -0.0764037834
 C        -7.8629416730        2.2454479034       -1.3141460952
 O        -4.4066280198        1.6652994796       -2.7740286984
 O        -5.5751849162       -0.5674692168       -2.0191909833
 C        -7.5176471929       -2.2871999025       -1.0326404089
 C        -7.7872016148       -2.7581520062        0.4538028424
 C        -7.2970274992       -4.1780028654        0.6836695211
 C        -5.6964206938       -4.2623501681        1.0374095357
 C        -5.0454466607       -3.2812744780        2.0562105880
 O        -8.2365999031       -1.9927605709        1.2386129323
 O        -5.1543946943       -5.2455086685        0.5994393486
 C        -7.9852099058       -4.6619740994        1.9609008696
 C        -7.6677311285       -5.2136941821       -0.4424838447
 C        -3.4984773394       -3.4035117149        1.8254585615
 C        -2.9475219156       -2.5313248439        0.6221863986
 C        -1.4499375055       -2.5370617321        0.2163974664
 C        -0.9981960604       -0.9887261020        0.0627689510
 C         0.0543096922       -0.4960964906        0.9812591796
 C        -0.6161683494       -3.3718248855        1.2500789632
 C        -1.3908588478       -3.2444700289       -1.1210606749
 O        -3.6844486880       -1.9360261304       -0.1274080637
 O        -1.3970049669       -0.3048682594       -0.8920004787
 C        -0.0911211929        0.9548301615        1.4229525420
 C        -1.2128394076        1.1385153885        2.3750390728
 C        -1.0111965684        2.0519522581        3.6600012932
 C         0.3525300474        1.8024020965        4.5390013104
 C         0.9460570155        3.0074597388        5.4445425611
 O        -2.2727140989        0.5144552660        2.3256026155
 O         0.9636044895        0.7745226667        4.3254164575
 C        -1.1558986473        3.4530174127        3.0610468022
 C        -2.0877476810        1.7654934880        4.7068917689
 C         2.4249652209        2.9904229527        5.6233620433
 C         3.0564191992        4.0718534560        4.6874634074
 C         4.6057208306        4.2343321144        4.8046210994
 C         5.5469860346        3.5668845953        3.7137598048
 C         6.0923286467        4.2969820813        2.5236857889
 C         4.9001900466        5.7805259541        4.5874650975
 C         5.1893299495        3.7146075791        6.2860239513
 O         2.3790377688        4.8787693897        4.0411187975
 O         5.6557514280        2.3729607419        3.7912129913
 C         6.9854796222        3.3679771622        1.6913386797
 C         6.3935892771        3.0660836982        0.2511397645
 C         7.2927613050        2.1498803794       -0.6664262243
 C         6.9982843285        0.5732865581       -0.3911152817
 C         5.5300218828        0.1504409619       -0.3453629337
 O         5.3180021217        3.5390760825       -0.0571083036
 O         7.9150993136       -0.2226076203       -0.3399811548
 C         6.8138108651        2.4503083733       -2.1098503550
 C         8.7621957546        2.4623174766       -0.5393601609
 C         5.4534548289       -1.3630817455       -0.6618871383
 C         4.0641769427       -1.8167683395       -0.7283646808
 C         3.7662948785       -3.3548302122       -1.1034884897
 C         2.3691595035       -3.3977326830       -2.0828957495
 C         2.4042687951       -2.5849399262       -3.4251842000
 C         4.7639347810       -4.0563179052       -2.0217966392
 C         3.4829975857       -4.1489655227        0.2004920707
 O         3.0660570076       -1.1396193528       -0.5321728235
 O         1.4054710396       -4.1139054502       -1.8142961302
 C         1.0063264436       -2.3664018708       -4.0328615951
 C         1.1700665733       -1.3253052959       -5.1169659500
 C        -0.2624945200       -0.7072196680       -5.8047658670
 C        -1.0224610975       -0.2346295099       -4.4609615373
 C        -0.7715722507        1.1374443729       -3.9508175664
 O         2.2312768118       -0.8054835830       -5.3988602873
 O        -1.8424749551       -1.0371723234       -3.9418991618
 C         0.1222141191        0.4620328372       -6.7584262935
 C        -0.9599997214       -1.8842643828       -6.4920871391
 H        -5.7707677227        4.3796051882       -2.6747044264
 H        -5.1709090239        3.6820688641       -4.1293246048
 H        -6.8988631769        3.3239068438       -3.6327786852
 H        -7.9717526590       -0.4323348735       -0.1020778553
 H        -8.5745735549       -0.6186204729       -1.7703617685
 H        -4.6306219905        1.7876071345       -0.0665064248
 H        -6.0225398343        1.4267138090        0.7874127114
 H        -5.8103585284        2.9953875791        0.2108300002
 H        -8.4441668964        2.1481211449       -2.2735652231
 H        -8.4433337642        1.7591071158       -0.5862156746
 H        -7.8211138865        3.3084426356       -1.0297526097
 H        -8.3782493754       -2.6925356140       -1.5671563564
 H        -6.5853890457       -2.5607214369       -1.3996144177
 H        -5.5844683877       -2.3210308166        1.8814795143
 H        -5.2607025221       -3.4600752554        3.1012900624
 H        -7.8704194272       -4.0238316320        2.8424997748
 H        -7.5366241808       -5.6071998707        2.2977121389
 H        -9.0035095911       -4.8518055791        1.8801425865
 H        -8.8147781966       -5.3898632624       -0.3061355944
 H        -7.5375033739       -4.8595057236       -1.4628239065
 H        -7.1308040121       -6.2603542615       -0.3547951363
 H        -3.2712493749       -4.4279153425        1.5902821027
 H        -2.9774881221       -3.0756021605        2.7578766172
 H         0.0438830068       -1.2278734910        1.7983268720
 H         1.0484051227       -0.6327674970        0.5745212601
 H        -1.2308648117       -4.2127255682        1.3944754554
 H        -0.6468984608       -2.8036520066        2.1704388302
 H         0.3039650696       -3.6452833582        0.7156807354
 H        -2.2456122127       -2.8685607391       -1.7076646133
 H        -0.4795581163       -3.0293230405       -1.7154867524
 H        -1.4823358666       -4.2901130090       -1.0038710404
 H         0.8574122560        1.2699405326        1.9145811625
 H        -0.1279570134        1.6139398515        0.5925483559
 H         0.4720909952        4.0123557257        5.2293274793
 H         0.4805918999        2.7331142137        6.3752738315
 H        -0.3507257397        3.6026797798        2.3823475548
 H        -1.0320650370        4.1845304089        3.8803522055
 H        -1.9965546295        3.7006991728        2.4859025103
 H        -2.1933900407        2.6064116984        5.3351203288
 H        -3.0328462227        1.7722206921        4.2332709116
 H        -1.8045625330        0.8485227395        5.2356168411
 H         2.9099334439        2.0366476900        5.4039317450
 H         2.6237567063        3.1918542701        6.7241506052
 H         5.3383948662        4.6852734685        1.7820761459
 H         6.6620857034        5.2603125062        2.7951941442
 H         4.6196670578        6.0549490305        3.6166413439
 H         5.9726478719        5.9804506407        4.6572985562
 H         4.1957345842        6.2269651903        5.2808357248
 H         6.1477134144        4.2415485447        6.4410964413
 H         4.5271406391        4.0892638789        7.0773040998
 H         5.3442469828        2.6426149145        6.2401824408
 H         8.0483108623        3.5773993504        1.7543316585
 H         6.9684566867        2.4546540213        2.2502145244
 H         5.0239029555        0.4586046022        0.5753157482
 H         4.9065939251        0.6473001150       -1.1822206588
 H         7.2508543064        1.9283654807       -2.9478655062
 H         7.0095925368        3.5280208270       -2.2595733357
 H         5.7496787597        2.3796293754       -2.2359263817
 H         9.1035594064        2.2178196522        0.4576654679
 H         9.2515826895        1.7186935593       -1.2057435906
 H         9.0662988875        3.4829782656       -0.8844619048
 H         6.0004564610       -1.9364528266        0.2310764078
 H         6.1607451611       -1.6916275978       -1.4004226350
 H         3.0157330706       -1.6935981040       -3.2570084993
 H         2.9086556595       -3.2648397341       -4.1411517105
 H         4.8907540235       -3.4382282953       -2.8933736702
 H         4.4915330386       -5.1158562876       -2.2717339504
 H         5.7867909418       -4.0817166408       -1.6201373624
 H         2.8768634891       -5.0268416177        0.0842545336
 H         4.3681712233       -4.5804272794        0.5273714722
 H         3.2353851808       -3.5283672874        1.0368589133
 H         0.6029194221       -3.3145736822       -4.3603792588
 H         0.2288264089       -2.1232597008       -3.2241195588
 H        -1.4477725153        1.8829841166       -4.1762905424
 H        -0.7216665456        1.1438734572       -2.8676886214
 H         0.0910914641        1.5800336457       -4.3802247674
 H        -0.3729911542        0.3417120776       -7.6562478074
 H         1.2527283438        0.6779460045       -6.9203098374
 H        -0.2157471265        1.4235969384       -6.3872974555
 H        -1.8028167646       -1.4585235908       -7.1382036111
 H        -0.2924603837       -2.2849533886       -7.2809851006
 H        -1.3474543327       -2.6746263547       -5.8327762220
 Na       -3.2352606580       -0.2611944575       -1.9736593737
