155

 C        -6.1421808645        3.0208248889       -3.3463872253
 C        -5.5250047515        1.8404891471       -2.5816643719
 C        -6.3852901736        1.1693609796       -1.4157436701
 C        -6.5942407639       -0.4093042772       -1.7822934175
 C        -7.9905708682       -1.0203789567       -1.7400014472
 C        -5.5141421849        1.2979357465       -0.0932095621
 C        -7.7098308434        1.8667073659       -1.2545466820
 O        -4.3261634338        1.5990115664       -2.8219803662
 O        -5.6927560222       -0.9487113327       -2.3863995097
 C        -8.0053905776       -2.5111945672       -1.4882433037
 C        -7.5561511545       -2.8666288398       -0.0115768692
 C        -6.9608748036       -4.2152477842        0.3055675522
 C        -5.5570983326       -3.9116977933        0.7685752148
 C        -5.3169703510       -3.0085321413        1.9796220697
 O        -7.7069552038       -2.0171701133        0.8417938861
 O        -4.6227233313       -4.4597410665        0.2270896362
 C        -7.8177032121       -4.8281599171        1.4539386510
 C        -6.8903260723       -5.3267526768       -0.8083561097
 C        -3.9044819592       -2.5736719393        2.2834519433
 C        -3.1795109614       -2.0420302752        1.0156199870
 C        -1.6004473729       -2.2108655543        0.8320775611
 C        -1.0639090611       -0.7986716703        0.3855566601
 C         0.2179280579       -0.1341556072        1.0317713672
 C        -0.9112154825       -2.8184909207        2.1424502448
 C        -1.2747827163       -3.1295115300       -0.3760087148
 O        -3.8914461249       -1.6385199268        0.0970137153
 O        -1.5820319005       -0.1681226198       -0.5216059009
 C        -0.0933988637        1.3347598952        1.1069926793
 C        -1.0403458640        1.5702055630        2.2372747813
 C        -0.8324483003        2.3784052145        3.6425682678
 C         0.4910476943        1.7254247163        4.2365995123
 C         0.9674117062        2.2081016100        5.5410072331
 O        -2.2057795086        1.1241006815        2.1294362964
 O         1.1269720049        0.8413413784        3.7235417084
 C        -0.7745107648        3.8878071847        3.5242418788
 C        -1.9829104609        2.0020862770        4.5653667637
 C         2.4561674912        2.2768265542        5.5594784706
 C         2.8778791983        3.3947854757        4.6425724614
 C         4.2484519461        4.1734782069        4.7957688857
 C         5.2168413196        3.4637671508        3.8621068305
 C         5.6842945035        4.1644029913        2.6452887700
 C         4.1331728474        5.7525366419        4.4686351774
 C         4.9088775071        4.1602866275        6.2509092911
 O         2.1148572536        3.7720484068        3.7719252465
 O         5.4166192544        2.2327372719        4.1425011418
 C         6.7379626277        3.3454226007        1.8580088415
 C         6.3343887101        2.9866616912        0.4151587626
 C         7.4279763772        2.2671363728       -0.4793556843
 C         7.0425434021        0.6715218052       -0.2228704812
 C         5.6230536704        0.2949173498       -0.5820433885
 O         5.2484235141        3.3329392376        0.0022470940
 O         7.8668383015       -0.0581851842        0.2817084476
 C         7.1105460303        2.6864383778       -1.9339579485
 C         8.8619405388        2.5220744934        0.0797571046
 C         5.5611541097       -1.1632515780       -1.1215844807
 C         4.2074790017       -1.8648845814       -0.9265852765
 C         4.0906091965       -3.2690207087       -1.4954548930
 C         2.7904299208       -3.3803142767       -2.3634327145
 C         2.5675428158       -2.2214160620       -3.3412421098
 C         5.2914259552       -3.7153125084       -2.3780009417
 C         4.0187676565       -4.1452021211       -0.2341159442
 O         3.2331303392       -1.4634649936       -0.2871723582
 O         2.0418203882       -4.3571387095       -2.3527335358
 C         1.3842098728       -2.4176763550       -4.3050754906
 C         0.9853677388       -1.1282014688       -5.0303619059
 C        -0.4795351609       -0.9229357196       -5.4675254947
 C        -1.2488373243       -0.3772601749       -4.2514658777
 C        -0.5347535559        0.7669618359       -3.5038770978
 O         1.7370978548       -0.1592206113       -4.9758468113
 O        -2.3870411739       -0.6979995972       -4.0416200825
 C        -0.5667973286        0.2111665800       -6.4386973368
 C        -1.1648056974       -2.2935231096       -6.1198463240
 H        -6.0134367253        3.8228075236       -2.6276862688
 H        -5.5252368379        3.0491030022       -4.1808906590
 H        -7.1508034295        2.9395412967       -3.6374595813
 H        -8.7330843524       -0.5858227266       -1.0856999244
 H        -8.3114514367       -0.6713410104       -2.6923866047
 H        -4.4352240616        0.9923039325       -0.1174173484
 H        -5.9382211660        0.7843208217        0.7611870914
 H        -5.4045167446        2.3209416919        0.2400077551
 H        -8.3857671601        1.7288951860       -2.0461512138
 H        -8.1869970156        1.5828146668       -0.3221457350
 H        -7.5336435209        2.9314397961       -1.2098228227
 H        -9.0332691815       -2.8250078661       -1.6154393603
 H        -7.4035734060       -3.1848421113       -2.1389188736
 H        -5.9209292033       -2.0414486459        1.9084491278
 H        -5.6705626084       -3.6474905607        2.8773415857
 H        -7.8869506834       -4.2030775200        2.3699193702
 H        -7.6793866651       -5.7611589652        1.7877978690
 H        -8.8246165434       -4.8951974075        1.1012585823
 H        -7.8285852581       -5.4054674768       -1.3423053351
 H        -6.3001797941       -4.9388599645       -1.5563364346
 H        -6.4830464183       -6.3072884876       -0.5187126003
 H        -3.2330103537       -3.4163636913        2.6952484388
 H        -3.9555461591       -1.7512172268        2.9992905762
 H         0.3128848338       -0.5309964005        2.0029643783
 H         1.1364857184       -0.3029260946        0.3906750084
 H        -1.1287933260       -3.9030592158        2.0107114571
 H        -1.3891217217       -2.2140802847        2.9816143156
 H         0.1380148069       -2.6632712681        2.0054133241
 H        -1.9019172089       -3.0290643876       -1.2777891016
 H        -0.2533682172       -3.0345112158       -0.6762816161
 H        -1.5753447944       -4.1038263550        0.0155940847
 H         0.8722347100        1.9478910510        1.2218680669
 H        -0.6310084097        1.6706556330        0.1945571273
 H         0.3246895287        2.9927314624        5.9077076600
 H         0.7428894219        1.3029726002        6.2191565652
 H         0.0578870534        4.3121503662        2.9206042419
 H        -0.7986696491        4.3494703869        4.4645121950
 H        -1.6973404270        4.2464230204        3.0629366923
 H        -1.6897925268        2.2977191679        5.5786063597
 H        -2.9601165839        2.4983172904        4.3264887996
 H        -2.1453110579        0.9936316522        4.5375368695
 H         2.8068156888        1.3524073896        5.0525017068
 H         2.8081945065        2.2127297769        6.5820060765
 H         4.7959882590        4.2426085247        2.0317763659
 H         5.9794854044        5.1547657938        2.7003443759
 H         3.7446291484        5.8777437420        3.4778831566
 H         5.0485143258        6.1364885714        4.6666491135
 H         3.4896692584        6.3095919868        5.1928624258
 H         5.8283890342        4.7454401158        6.2094991525
 H         4.1417904252        4.5466748853        6.9513302958
 H         5.2510279418        3.1467794335        6.3997232722
 H         7.7002694576        3.8807337332        1.8084076938
 H         6.9506110429        2.4943328859        2.5487081893
 H         5.0089638208        0.3775274940        0.3810724726
 H         5.1578099729        1.0074168835       -1.2463588596
 H         7.3651426141        1.8700987021       -2.6455531364
 H         7.6686360910        3.4607049691       -2.3206637545
 H         6.1085976361        3.0649902696       -2.0349316969
 H         8.8105014219        2.0794721305        1.0584092658
 H         9.7149729223        2.1189406266       -0.4977052770
 H         9.0152104125        3.5535615544        0.2227427785
 H         6.3964417304       -1.7564337690       -0.8945360710
 H         5.9325786194       -1.1338169673       -2.2351402532
 H         2.3039550765       -1.2949982112       -2.7711808438
 H         3.5118457245       -1.9987983797       -3.8318137410
 H         5.3831206517       -2.9767576841       -3.2509481839
 H         5.1302402254       -4.6494680564       -2.8971233966
 H         6.1502519317       -3.7121970853       -1.7724690447
 H         4.4065637021       -5.1059036612       -0.4019928042
 H         4.5561061688       -3.7115522891        0.6488454729
 H         3.0195716732       -4.3000603227        0.0603762088
 H         1.5321751391       -3.2414084381       -5.0154093429
 H         0.4002469004       -2.6848684187       -3.6970714076
 H        -1.1179420790        1.6740445919       -3.4592974409
 H        -0.4666173415        0.5581367387       -2.4832224392
 H         0.3898758891        1.0643373104       -4.0045391215
 H         0.2572906110        0.9056604656       -6.1761276840
 H        -1.5423102919        0.7449562948       -6.5317987576
 H        -0.2954931389       -0.0749423117       -7.4170048572
 H        -2.0343012961       -2.4597807321       -5.4989022382
 H        -1.3309661605       -2.0735039672       -7.2028036261
 H        -0.5552324065       -3.2469120975       -5.9974368369
 Na       -3.3355213850       -0.4935122063       -1.8853227072
