155

 C        -6.2028175951        3.0932278040       -3.7786041988
 C        -5.8023363616        1.8213186642       -3.0817921871
 C        -6.8584282865        0.8792050645       -2.4268504574
 C        -6.4137159101       -0.6256531483       -2.2457882792
 C        -7.5024364479       -1.6662280636       -2.1062830679
 C        -7.2409772579        1.5229122556       -1.0330571996
 C        -8.2460537603        0.8779803881       -3.2591960035
 O        -4.5973770277        1.6569641477       -3.0373848458
 O        -5.2593358634       -0.9727160946       -2.1306385547
 C        -6.9865975344       -3.0678603502       -1.7442383100
 C        -7.2603772357       -3.5474103130       -0.3277543200
 C        -6.3312881953       -4.6952269386        0.1560903110
 C        -4.9710067779       -4.0333155756        0.6407950460
 C        -4.9221654388       -3.1295122184        1.9286657558
 O        -7.9895301923       -2.9221843451        0.4763560442
 O        -3.9582963353       -4.3076958460       -0.0208656812
 C        -7.0728265114       -5.3364114280        1.3945437710
 C        -5.9638351713       -5.8319782015       -0.8602398562
 C        -3.3933671380       -2.6190442392        2.1464135896
 C        -2.9248399250       -1.8302372607        0.8751329301
 C        -1.2797132579       -1.6621962376        0.6694575353
 C        -1.0219203223       -0.1107321225        0.7000070681
 C        -0.0788437980        0.4196470333        1.7385262114
 C        -0.4131874239       -2.5169688535        1.5764664570
 C        -1.1719131409       -2.2706270367       -0.7244861214
 O        -3.7889383412       -1.2855169410        0.1349043177
 O        -1.4568605533        0.5320832391       -0.2621753729
 C        -0.3741697280        1.9025445623        2.0991890395
 C        -1.5281927614        1.8623158219        3.0316871406
 C        -1.3690083449        2.4280352746        4.4508367895
 C        -0.2488567390        1.6040039826        5.0176028217
 C         0.5815169171        2.1682978955        6.2680735133
 O        -2.5740322829        1.4093845246        2.6321196895
 O        -0.0421944141        0.4738021974        4.5953368537
 C        -1.0251374790        3.8860320061        4.4510779188
 C        -2.6050338738        2.1376246011        5.3826874206
 C         2.1417510058        2.0314816437        5.9694893498
 C         2.5992111577        3.1281280370        4.9822875602
 C         3.7727721061        4.2505692195        5.3188703310
 C         5.1246625243        3.7724340110        4.5038900688
 C         4.9854580052        3.0148268539        3.1379938097
 C         3.3314558719        5.5351391895        4.6727175173
 C         4.0776768191        4.5320119995        6.7344473463
 O         2.1604276474        3.1484447298        3.8250706244
 O         6.2185799293        4.0616826687        4.9676680955
 C         6.3808702447        2.9809275387        2.5095445748
 C         6.3879625158        2.8553479496        0.9597610340
 C         7.6185061868        2.2292564713        0.3829363763
 C         7.3138588443        0.7138871749        0.2106233018
 C         6.1841616162        0.3020854204       -0.7518812909
 O         5.4746178861        3.3221757875        0.3070016681
 O         8.1609217009       -0.0971713885        0.5429013617
 C         8.0608724825        2.7437693753       -1.0940893589
 C         8.9458755798        2.3520103921        1.2414231102
 C         6.0624527902       -1.2175539201       -0.9373758544
 C         4.7938698727       -1.6551618799       -1.6448067900
 C         4.7220758786       -2.8658824372       -2.5676315473
 C         3.1906639122       -3.0774081168       -2.9310804157
 C         2.5101269827       -2.1940532954       -3.9201613205
 C         5.5270932617       -2.5914582403       -3.8110214022
 C         5.2957848697       -4.1309371299       -1.8342928259
 O         3.7555049925       -1.1793486045       -1.2894192227
 O         2.6140344961       -4.0376180567       -2.4115888565
 C         1.0050748176       -2.2258505784       -4.0062437644
 C         0.4355315849       -1.2120624633       -4.9924184491
 C        -1.0083447214       -1.4320403918       -5.6307475691
 C        -1.8073075776       -0.4225618293       -4.7411567317
 C        -1.6604930983        1.0402397745       -5.1150695439
 O         1.1239687506       -0.2711316230       -5.2864963744
 O        -2.3423063283       -0.8058691174       -3.6820926089
 C        -0.8567272706       -1.2636591887       -7.1012309418
 C        -1.5189547522       -2.9024428724       -5.4310302281
 H        -7.2419249970        3.3524010998       -3.5385370956
 H        -5.5402141477        3.8088518906       -3.3893126865
 H        -6.1002535876        2.9413725039       -4.8382047135
 H        -8.1415582906       -1.4277206443       -1.2095399929
 H        -8.0963224425       -1.7602065279       -3.0891617342
 H        -6.8616531536        0.9529042942       -0.2306436890
 H        -8.3344768003        1.7236944301       -0.9736263953
 H        -6.7559681056        2.5098512048       -0.9951755968
 H        -8.2108205523        0.4681366201       -4.2647682543
 H        -9.0480494529        0.4360223258       -2.6432836310
 H        -8.4877286024        1.9033822984       -3.3025868689
 H        -7.4274004215       -3.8543046288       -2.4369066166
 H        -5.8750620927       -3.0888216454       -1.8514337268
 H        -5.5791355059       -2.2961159214        1.8036917048
 H        -5.3266592855       -3.5910005486        2.7659777139
 H        -7.9693154254       -4.8305003723        1.8166515117
 H        -6.4345026517       -5.6194352471        2.2466561463
 H        -7.5382377929       -6.3017720303        1.0914133474
 H        -6.8005747256       -6.4862780509       -0.8223059640
 H        -5.8787056549       -5.5284214336       -1.8017084105
 H        -5.1177047691       -6.4289729364       -0.5570934196
 H        -2.7866337856       -3.4901126475        2.4956998644
 H        -3.3813853222       -1.9260468685        3.0061811636
 H        -0.0216401745       -0.1551838460        2.6772707056
 H         0.8940744349        0.3311677625        1.1754250333
 H        -0.7256832750       -3.5498116067        1.5227921341
 H        -0.4386250262       -2.2244957542        2.5970364130
 H         0.6478240572       -2.2736268825        1.2771135248
 H        -1.8503037422       -1.8763203876       -1.4485709391
 H        -0.1695446328       -2.0749062001       -1.1192953146
 H        -1.3350317537       -3.3133147029       -0.7152298865
 H         0.4016247294        2.5205595004        2.5367928474
 H        -0.6926007062        2.3623663398        1.1616115243
 H         0.4247432365        3.1436705135        6.7125490416
 H         0.2941131398        1.5175190938        7.0753744694
 H        -0.1079233887        3.9930361020        3.9282408565
 H        -0.8676884825        4.2487020677        5.4983857960
 H        -1.8149572178        4.4491762044        4.0097272748
 H        -2.5541830498        2.4354684723        6.4953490270
 H        -3.5133127612        2.8159762007        5.1131394617
 H        -2.9814603558        1.1680470301        5.2214780137
 H         2.3632455719        1.0689338916        5.5801770259
 H         2.7035702931        2.0886604948        6.9180659077
 H         4.5576129031        2.0346588236        3.1684907821
 H         4.3496721700        3.5500793644        2.3415014266
 H         3.0401238736        5.3457600371        3.6300697432
 H         4.0104299801        6.4229368776        4.7980910735
 H         2.4617744057        5.9307773135        5.1190595975
 H         5.0900607216        4.9166848293        6.9222445935
 H         3.3660358049        5.1760525914        7.2101894286
 H         4.1350915510        3.6383746924        7.3943211112
 H         6.9728112074        3.9023335603        2.6710555288
 H         7.0247746797        2.2518215920        2.9835227667
 H         5.2541935646        0.6027364356       -0.2755400055
 H         6.1937835899        0.6808645487       -1.7177042891
 H         8.8403628696        2.1637389027       -1.4697447008
 H         8.5956474633        3.7316948632       -0.9671609011
 H         7.1884696372        2.9319489355       -1.6706605336
 H         8.9570527577        1.7441557094        2.1507065183
 H         9.7510630831        1.9508964079        0.7216977685
 H         9.1745657385        3.3641617613        1.4921560727
 H         6.0489486418       -1.5384553736        0.1275284434
 H         6.9746308124       -1.5427242168       -1.4545940882
 H         2.9313284987       -1.1919904762       -3.7592961583
 H         2.7827733737       -2.4693980476       -4.9141845008
 H         5.3155121007       -1.6683628202       -4.2659038814
 H         5.1182904473       -3.2899213384       -4.5927706471
 H         6.6273605860       -2.7552367002       -3.6720856312
 H         5.3386872085       -4.9169191589       -2.5828583682
 H         6.2768923231       -3.9142867518       -1.5173748626
 H         4.6905432837       -4.4341318119       -0.9842407255
 H         0.5458714728       -3.2469493103       -4.1581595058
 H         0.5255464701       -1.9869464605       -3.0346388603
 H        -0.5995128302        1.2693893652       -5.0413194615
 H        -2.0515460694        1.1217495413       -6.1619481291
 H        -2.0851361744        1.6664614648       -4.3654949812
 H        -1.7812732765       -1.6511161877       -7.5397272463
 H        -0.0081452453       -1.7164751946       -7.4907746302
 H        -0.9780309770       -0.1895481149       -7.5246715288
 H        -2.4415124368       -3.0556795430       -6.0823408835
 H        -0.7689118992       -3.6438468416       -5.7730283774
 H        -1.6878322116       -3.1442795223       -4.3843567698
 Na       -3.1142856383        0.1228606948       -1.8070576828
