155

 C       -13.1126197018       -5.6805914324        3.5234214168
 C       -12.6416202976       -4.2149351233        3.6065269195
 C       -11.1886872433       -3.7635611783        3.9786378824
 C       -10.5371370373       -3.0028655643        2.8049916054
 C       -10.5036749499       -3.7571268785        1.3773178142
 C       -11.4499405261       -2.9826483433        5.3493321118
 C       -10.2855579617       -4.9837345276        4.2781611532
 O       -13.4906628543       -3.3493431870        3.4860804631
 O       -10.2067781153       -1.8239352163        2.9158328295
 C        -9.0252805829       -3.6381037446        0.7830269313
 C        -7.9833508992       -4.4519245419        1.5900840516
 C        -6.4034395594       -3.9957444217        1.6032316478
 C        -5.7681183498       -3.3137522244        0.3167616602
 C        -4.4525745818       -2.3952433889        0.3855145207
 O        -8.3044428410       -5.5832018498        2.0164830841
 O        -6.3219595822       -3.5408224230       -0.6984029871
 C        -6.3370549999       -2.9486623811        2.8552585600
 C        -5.6102934403       -5.2581881418        2.0075085585
 C        -3.8516515571       -2.2129400955       -0.9747052362
 C        -2.5952290645       -1.3175879849       -1.0883010867
 C        -2.2448987518       -0.8209044854       -2.4950275539
 C        -2.2490122586        0.7337764952       -2.4024774919
 C        -3.3938087263        1.7462479462       -2.5482188396
 C        -0.7236373955       -1.2472964052       -2.7876769584
 C        -3.1360274450       -1.1382985707       -3.6882677185
 O        -1.9217423808       -0.9632669764       -0.0978282508
 O        -1.1765538731        1.2538798072       -2.0702939279
 C        -3.2721794453        3.0165499942       -1.7149643738
 C        -3.6656152626        2.7454643751       -0.2297971469
 C        -3.6330483655        3.9177244343        0.8172160842
 C        -2.8767641575        3.4860694848        2.1074970423
 C        -3.5061107433        2.3655151220        3.0646358585
 O        -4.2539069936        1.7121508687        0.1309580601
 O        -1.9036987053        4.1442817392        2.4728923784
 C        -3.0386163288        5.2387751379        0.2843075975
 C        -5.1982816467        4.2352140758        1.1307536020
 C        -2.4337836968        1.7637420518        3.8803602307
 C        -1.2703080783        1.2989092292        2.9540705560
 C         0.0400837549        1.0263415587        3.6326325775
 C         1.1586746346        1.2565149184        2.5339540112
 C         1.9747154007        2.5693933567        2.6417638389
 C         0.2220661586        1.8397207573        4.9517325817
 C         0.0141312120       -0.4261368680        4.0350259786
 O        -1.3729392307        1.3382258099        1.7528005006
 O         1.2484631630        0.4755235586        1.6609255991
 C         2.6896413460        2.8682137786        1.2993701041
 C         1.8803902914        3.0071588831       -0.0200508005
 C         2.7390942310        2.8494081422       -1.3668399304
 C         2.9998800889        1.3362915991       -1.7340141639
 C         4.2287112536        1.0767048045       -2.6767936557
 O         0.6578988567        2.9544052924       -0.0266478654
 O         2.2707301943        0.3840513354       -1.3745823442
 C         1.8915247231        3.6089294234       -2.3758383715
 C         4.0707956580        3.5975190150       -1.1537946232
 C         4.7739372727       -0.3626516022       -2.4606052214
 C         6.1764828978       -0.2323364500       -1.8715813488
 C         7.2119632864       -1.5063449964       -1.9078569233
 C         8.3001927053       -1.1221152505       -3.0020712149
 C         9.4560386284       -0.1293688591       -2.7121182918
 C         7.9154723501       -1.5897785279       -0.5376801115
 C         6.5277798860       -2.7583527858       -2.3528117374
 O         6.5869407158        0.8046607965       -1.3957679160
 O         8.1453738264       -1.6251800782       -4.0873934056
 C        10.2952642873        0.3292157557       -3.8385965077
 C        10.8171102835        1.7967996748       -3.7964830721
 C        11.9773439581        2.2266060136       -4.7346737618
 C        13.3649511658        1.6823421502       -4.1915681214
 C        13.7432830856        1.8726202130       -2.6819079633
 O        10.1423272367        2.5903625123       -3.1439686646
 O        14.0886344804        0.9548288040       -4.8123435852
 C        11.7005412347        1.6448220197       -6.1673464662
 C        12.1242688187        3.7252186265       -4.8017311768
 H       -13.2355171521       -6.1873942682        4.4704015268
 H       -14.1365609616       -5.6436204215        3.1388119057
 H       -12.5148213017       -6.3052639374        2.8667493339
 H       -10.8681140517       -4.7707777889        1.3517978827
 H       -11.2502672578       -3.2303613332        0.6536565576
 H       -10.5014068501       -2.6751303951        5.7151846383
 H       -11.9882225317       -3.6177302698        6.0751283854
 H       -12.0265261938       -2.0947438445        5.1467353840
 H       -10.9105789360       -5.8641479472        4.6662400501
 H        -9.7390102619       -5.3641066239        3.3285946096
 H        -9.4948456917       -4.7089765451        5.0487938321
 H        -8.9929729473       -3.9060609688       -0.2335735179
 H        -8.9087923055       -2.5640808924        0.7463913125
 H        -4.6369049477       -1.3977365460        0.7910124780
 H        -3.6716616375       -2.8651051108        1.0814951834
 H        -5.4221025473       -2.4793876769        2.9380527157
 H        -6.4551244472       -3.6667494796        3.6616096328
 H        -7.2319746036       -2.3043553031        2.6736264658
 H        -6.1428480636       -5.9269043105        2.6889232552
 H        -5.2096548727       -5.9019712417        1.2041298760
 H        -4.7407141388       -4.9726102829        2.4635373425
 H        -4.6155407530       -1.9202673506       -1.6711674571
 H        -3.5401739956       -3.2410220092       -1.3769841489
 H        -3.3480957331        1.9903801829       -3.5872619619
 H        -4.3798192642        1.3629742908       -2.3996163432
 H        -0.0937877599       -0.7783734619       -2.0720242075
 H        -0.4729554260       -1.0173838884       -3.8929180659
 H        -0.4812426645       -2.2407766450       -2.5778734096
 H        -3.1006480453       -2.2124738712       -3.9725351999
 H        -4.1715796654       -0.9736351005       -3.3990766623
 H        -2.9049942558       -0.4483333165       -4.5476270201
 H        -2.3251709020        3.3923857393       -1.8690220996
 H        -3.9708757744        3.8779760439       -1.9605188630
 H        -4.2992777699        2.6836236081        3.7697326497
 H        -3.8526281869        1.5704468954        2.4277780496
 H        -2.0239542107        5.2088179261       -0.0497437155
 H        -3.1393964737        5.9884659993        1.0869683691
 H        -3.4955765398        5.6932692503       -0.5948755025
 H        -5.7286422497        4.5484056357        0.2616069403
 H        -5.6869071399        3.2594624893        1.3757971924
 H        -5.3503024336        4.9655121488        1.9452701721
 H        -2.6939063561        0.8180950818        4.4454228771
 H        -2.0243260374        2.5947945100        4.4503080511
 H         1.2406474249        3.3885886270        2.9339672233
 H         2.7674343064        2.5545044065        3.3353726995
 H         0.1940103508        2.9271629853        4.7996072152
 H         1.2941357960        1.7157095004        5.3624209623
 H        -0.5817954074        1.5041600807        5.5757568140
 H         0.9418668685       -0.6760813985        4.4574011233
 H        -0.9169888649       -0.5270310306        4.6222681352
 H        -0.0365133605       -1.1991993335        3.2732391698
 H         3.3346415210        3.7354223527        1.4785266753
 H         3.3888857127        2.0719859042        1.0885282728
 H         3.7469797193        1.1657698392       -3.6498048863
 H         5.0161752243        1.7250944451       -2.4700214872
 H         1.3324051790        4.3966355551       -1.8188937176
 H         1.0873417810        3.0338044865       -2.7596849373
 H         2.4498065344        4.0343080395       -3.2712331025
 H         4.5507687898        3.8348379337       -2.1288209472
 H         3.7577990387        4.5226973244       -0.5761130254
 H         4.8484037302        3.1430169988       -0.6241012469
 H         4.8755718434       -0.8802772782       -3.3689966413
 H         4.1839468294       -1.0285480081       -1.8355112646
 H         9.0586202708        0.7518731419       -2.2253824143
 H        10.0020124396       -0.6051518762       -1.9086626900
 H         8.3088355987       -0.6123019020       -0.1456409080
 H         8.6793931687       -2.3548173178       -0.3892916446
 H         7.1488110735       -1.9861534842        0.0748575338
 H         5.5419670247       -2.5544868062       -2.8213999322
 H         7.2929273186       -3.1748427086       -3.0869102176
 H         6.3960545206       -3.4374797765       -1.5491545062
 H        11.1960445206       -0.2920543461       -3.8084404629
 H         9.7201217667        0.3890206152       -4.7956968778
 H        14.5724818200        1.2010194255       -2.3453429137
 H        14.0170744328        2.9303941477       -2.4549196932
 H        12.8426153877        1.6298874680       -2.0447043600
 H        10.6967980703        1.8986166734       -6.4511278554
 H        11.6573698597        0.5370528805       -6.1007505788
 H        12.3567646916        2.0773127955       -6.9398758483
 H        12.8536965139        3.7849803357       -5.6604509617
 H        11.3615974497        4.3481511117       -5.1699154180
 H        12.6440428524        4.1954052228       -3.9613351228
 Na        0.0503077639        0.5286117837       -0.2023335931
