155

 C        -6.1640506084        2.4887058130       -3.1919873930
 C        -5.7086710751        0.9932772559       -3.1515921583
 C        -6.8024265446       -0.1239409847       -2.8850403919
 C        -6.1983121185       -1.4860998505       -2.8321525388
 C        -7.1142410378       -2.6436892476       -3.1196537420
 C        -7.3580403017        0.1134560923       -1.4265762819
 C        -7.7901585021        0.0434847278       -4.0244504586
 O        -4.5955207707        0.7325611668       -3.5540666175
 O        -5.0299243996       -1.6819818677       -2.4700415980
 C        -6.5042035962       -3.8500340067       -2.3790511516
 C        -6.5466702993       -3.6563632643       -0.8248774383
 C        -5.6739349186       -4.5839750709        0.0821682443
 C        -4.4033399255       -3.6847745735        0.6509780987
 C        -4.3984699246       -2.9358392757        1.9602700033
 O        -7.0848898209       -2.7643763980       -0.2292940875
 O        -3.3460418069       -3.9724891835        0.1029171578
 C        -6.5637602668       -4.9977100959        1.3826305292
 C        -5.2496196038       -5.8945642523       -0.5176894791
 C        -2.9060845502       -2.3538823222        2.2167379919
 C        -2.5252933028       -1.4150392064        1.0415016386
 C        -1.0907658911       -0.8782415912        0.9924179457
 C        -1.0307441362        0.6591120676        0.6296160187
 C        -0.0945389411        1.6121890071        1.5040185593
 C        -0.1355604355       -1.2712269051        2.1598344389
 C        -0.4966978053       -1.4614762015       -0.3357824808
 O        -3.3432040615       -1.2299132847        0.1142436982
 O        -1.6245680956        1.1452754445       -0.3119850741
 C        -0.8982535677        2.4498740344        2.4552842231
 C        -1.8649396999        1.6263464097        3.3543999811
 C        -1.7946759361        1.7281674699        5.0436521570
 C        -0.1875830176        1.7983469316        5.4114413898
 C         0.2457484168        2.3405516274        6.6999979550
 O        -2.6994898040        0.8920874849        2.8745126229
 O         0.5913405088        1.2812069243        4.6175741437
 C        -2.7367435720        2.8958491090        5.4978473716
 C        -2.3309952918        0.4046866346        5.6241093272
 C         1.6122555029        2.8014234846        6.5764233236
 C         1.7013137596        4.0266120180        5.7032430925
 C         3.1010647245        4.7499871441        5.5801814485
 C         4.0988094964        3.6593004152        5.1552192494
 C         4.5982649923        3.6265708131        3.5939286773
 C         2.9410499183        5.8328530588        4.4928488260
 C         3.7010477853        5.3262534908        6.8991540741
 O         0.7740249745        4.3279817493        4.9211075086
 O         4.5744671338        2.8443752738        5.9558327875
 C         5.4771404516        2.4193934940        3.3542250125
 C         5.8862685115        2.3089741662        1.8508367823
 C         7.2118265778        1.5401096160        1.6091095335
 C         7.0106411144        0.3465448582        0.5490779587
 C         6.5562121728        0.7007066681       -0.8609187671
 O         5.2139856712        2.8559083207        1.0000218648
 O         7.2222291948       -0.8157010514        0.8910824607
 C         8.2677880841        2.5286254913        0.9745600715
 C         7.8362055375        0.8274564874        2.8897251197
 C         6.1980366429       -0.6569700452       -1.5828205810
 C         5.3333504560       -0.5750987290       -2.8599155833
 C         5.1585187680       -1.9110577267       -3.6683043470
 C         3.6107020495       -2.2266263506       -3.4834182105
 C         2.7539614304       -1.1864095875       -4.3323264103
 C         5.6135390921       -1.6843346310       -5.1350564364
 C         5.9395727701       -3.1585024335       -3.1032165864
 O         4.7421626129        0.4421789432       -3.1277621468
 O         3.2325482915       -3.0352686530       -2.7033716205
 C         1.2143320325       -1.6869991428       -4.3678662328
 C         0.5618635902       -1.6715881397       -5.7741937166
 C        -1.0428133823       -1.7494668339       -5.9088733145
 C        -1.7414276735       -0.8775190267       -4.8341238669
 C        -1.9413592344        0.6200202101       -5.1787946312
 O         1.2005923218       -1.4253368402       -6.7607109690
 O        -2.0010780356       -1.2494719422       -3.7031069884
 C        -1.5462076494       -1.3851196428       -7.3837794294
 C        -1.3061218422       -3.2899481361       -5.6815448976
 H        -5.3301499975        3.1534684338       -3.4187468533
 H        -7.0276336430        2.6679054888       -3.8703868938
 H        -6.5343446403        2.8334690332       -2.2193954433
 H        -8.0336982136       -2.3967361492       -2.7151887985
 H        -7.2202991786       -2.7111736805       -4.2024910837
 H        -7.3504020778        1.1339022498       -1.1687702451
 H        -6.7451684515       -0.4712496618       -0.7162005411
 H        -8.3413235217       -0.3784867747       -1.3303636635
 H        -7.2847384479        0.3043156773       -4.8847742382
 H        -8.4260828928       -0.7479984520       -4.3092616587
 H        -8.4811771631        0.8230173482       -3.8382782122
 H        -6.9715372408       -4.7832117424       -2.6080137855
 H        -5.4528390868       -3.9554817224       -2.6696515284
 H        -5.0689100150       -2.0838889638        1.9066204008
 H        -4.7255201446       -3.4401213648        2.8074638292
 H        -6.9995246285       -4.1339213430        1.8267533010
 H        -5.8327762603       -5.5484880966        1.9343310548
 H        -7.3704088778       -5.6229967880        1.0295288094
 H        -6.1374418374       -6.6552891002       -0.6809572688
 H        -4.7398699068       -5.6957319944       -1.4827826609
 H        -4.3648749275       -6.4141151889        0.0766392847
 H        -2.1600707621       -3.2093231642        2.2534255619
 H        -2.8051899492       -2.0018556171        3.2263772137
 H         0.4515970829        1.0358090953        2.3014950794
 H         0.5866145678        2.1274957152        0.7890729544
 H        -0.1303275813       -2.3653420591        2.3262031061
 H        -0.5191200374       -0.7995589146        3.0699092305
 H         0.8749482296       -1.1179622697        1.9080702132
 H        -1.2370330647       -1.5130727691       -1.0726392079
 H         0.3187370660       -0.8519276608       -0.7051240504
 H        -0.1369702523       -2.4715925787       -0.1377649961
 H        -0.2542559456        3.0112028295        3.1599562054
 H        -1.5612562970        3.0942699561        1.8223807553
 H        -0.3957662287        3.1049765496        7.1407454505
 H         0.2378895719        1.4985293154        7.4229485290
 H        -2.6164451484        3.7691230353        4.8219307832
 H        -2.3319326491        3.3198937697        6.4482983729
 H        -3.7768327930        2.5798710038        5.5241598018
 H        -2.2463625874        0.5207475322        6.6416822916
 H        -3.2870466036        0.1605743634        5.2564503842
 H        -1.6197125640       -0.4609516075        5.4387544742
 H         2.1970573286        2.0340707800        6.0918831802
 H         2.0626738181        3.0038533419        7.5776781399
 H         3.7861598164        3.6556344815        2.9062248579
 H         5.1548287093        4.5061378041        3.3177676233
 H         2.3331561747        5.4568089386        3.6147664770
 H         3.9221829706        6.2515053792        4.3611321166
 H         2.2089573838        6.6130189948        4.7865220977
 H         3.0102068500        6.1689612602        7.1318486237
 H         3.6242269846        4.5583451827        7.5945688321
 H         4.7881737667        5.4965298863        6.6955364918
 H         6.4154356973        2.3308971135        3.9553653063
 H         4.9455869056        1.5189063571        3.5648344086
 H         5.6404986051        1.3256587907       -0.9615092800
 H         7.3164326240        1.0811552980       -1.4446210674
 H         9.0472449425        1.9793242715        0.4930480876
 H         8.6999014615        3.2553281145        1.7737982874
 H         7.7810736878        3.2090529505        0.2542777613
 H         7.2615760600        0.0157477373        3.2203980428
 H         8.7754507189        0.4478625560        2.5348020466
 H         8.1433275139        1.5033701646        3.6158744596
 H         5.7366396462       -1.2990467324       -0.9098381357
 H         7.1427611577       -1.1286230069       -1.9589298216
 H         2.8578360459       -0.1918006471       -3.8425719916
 H         3.0898429811       -1.0619326464       -5.3953310998
 H         5.0618829310       -0.9252343264       -5.5980688931
 H         5.5784637886       -2.6842715917       -5.6317086210
 H         6.6253366351       -1.3183977687       -5.2692703167
 H         5.6226532937       -4.0099014745       -3.7007354582
 H         7.0472387081       -3.0639358981       -3.3866534373
 H         5.7957908143       -3.4626162465       -2.0836413392
 H         1.2244011209       -2.6065773714       -3.9152529269
 H         0.6241210021       -1.0527120369       -3.7153275462
 H        -2.3743458034        0.8699015321       -6.1347883612
 H        -2.4367552189        0.9077799963       -4.2227532259
 H        -0.8518387818        1.0689155684       -5.2321365534
 H        -1.3865777200       -0.2929296099       -7.5034859872
 H        -2.6360340758       -1.5238719337       -7.4284328684
 H        -1.0855674400       -1.9705593241       -8.0815757159
 H        -2.4285277263       -3.4265691774       -5.6662907882
 H        -0.8372347865       -3.9713007675       -6.4031008910
 H        -0.9614787259       -3.5762843407       -4.6736670742
 Na       -3.0788722540       -0.2000134914       -1.9472977568
