155

 C        -6.4963372754        2.4998992809       -2.4800303974
 C        -5.8614883347        1.1265968861       -2.4874067533
 C        -6.7424269102       -0.1640970536       -2.5121247482
 C        -5.8674071871       -1.5557060775       -2.5224895134
 C        -6.6973872733       -2.8539556113       -2.6612310439
 C        -7.7913568486       -0.2655710478       -1.3320556027
 C        -7.7209441186       -0.1492493205       -3.8338978710
 O        -4.6387038775        1.1959638581       -2.5240488413
 O        -4.6622642071       -1.6576078111       -2.6613824329
 C        -5.9834030373       -4.1637673330       -2.1110634302
 C        -6.1741632889       -4.0763132455       -0.4772171419
 C        -5.3520574951       -5.1807320133        0.3532242615
 C        -3.9865861168       -4.4204992524        0.9032484021
 C        -4.0667097884       -3.0721284740        1.6401134423
 O        -6.9783787236       -3.2740619153       -0.0401327461
 O        -2.9385368175       -4.9752107503        0.6263059226
 C        -6.1544743603       -5.5474218592        1.7402455537
 C        -4.9885735166       -6.4727876062       -0.3958406216
 C        -2.6351998982       -2.5253904157        1.9032979191
 C        -2.2378649873       -1.5564900555        0.7783108798
 C        -0.8252442192       -0.8229092136        0.6820030723
 C        -1.1821104204        0.7036888818        0.4104256890
 C        -0.6278737040        1.7804613628        1.3522294601
 C         0.0337536739       -1.0109427842        1.9708652044
 C         0.1475226717       -1.3082125806       -0.6344909972
 O        -3.1236606825       -1.2698442510       -0.0368233337
 O        -1.8045226996        1.1523572570       -0.5893823877
 C        -1.7836532898        2.3904706184        2.2793984792
 C        -2.4044275975        1.3379963671        3.2473348555
 C        -2.2005458484        1.5340409868        4.7240199172
 C        -0.7878358686        2.1744379590        5.0352985481
 C        -0.6203519213        2.9240308501        6.3204977677
 O        -3.0584158168        0.3683521601        2.7875408632
 O         0.1097248416        1.8733435860        4.2583181981
 C        -3.3680435078        2.3819181489        5.2278544979
 C        -2.1851867102        0.0709828843        5.4604627986
 C         0.8305765984        3.3458533605        6.6375445874
 C         1.2582485367        4.4090764383        5.5897520593
 C         2.8385979197        4.5337150647        5.3094852507
 C         3.5876685137        3.2768265664        4.6340848545
 C         3.0986448199        2.7676737463        3.2712037032
 C         3.0150275589        5.7466110532        4.3601510697
 C         3.5004757867        4.9305728658        6.6874337011
 O         0.4245645569        5.1645025790        5.0730667447
 O         4.6280387157        2.9393983402        5.1342469943
 C         3.9069213343        1.6314055547        2.6920708980
 C         5.2710385230        2.1318164913        2.0112741711
 C         6.5684931247        1.1670300698        2.0284353406
 C         6.0244150819        0.0528466502        1.1421371390
 C         6.1257088008        0.2561275788       -0.3877833670
 O         5.4101268316        3.2665973863        1.6507730292
 O         5.3480473590       -0.8928737661        1.5675431598
 C         7.8403933349        1.8875463965        1.6572687065
 C         6.7468007087        0.6289243482        3.4372571763
 C         5.8875830871       -0.9186300932       -1.3257480548
 C         5.6264489638       -0.3353034766       -2.7190965487
 C         5.9605703898       -1.2532565391       -3.9941699096
 C         4.5969132056       -1.9349841801       -4.3422682584
 C         3.5733258625       -1.0578914252       -5.1954999026
 C         6.3788585340       -0.2123150846       -5.1443732343
 C         7.0353333760       -2.3836430538       -3.8264230312
 O         5.0321443708        0.7532938172       -2.8442041334
 O         4.2283858864       -2.9372880983       -3.7850156873
 C         2.0932679614       -1.6054913039       -4.8948092214
 C         1.1217300456       -1.0326965774       -5.8902947774
 C        -0.4047960016       -1.5515061020       -5.7923019921
 C        -1.0214549596       -0.5327032919       -4.7246854541
 C        -1.3395454276        0.9409627375       -5.0192318704
 O         1.4940611536       -0.2285861515       -6.7082809289
 O        -1.2557317511       -0.9241467714       -3.5795111848
 C        -0.9755004520       -1.3362269815       -7.1153269862
 C        -0.6232152394       -2.9752745924       -5.2113728146
 H        -6.6156877209        2.7894806348       -3.4701634640
 H        -7.5010493277        2.6508794750       -2.0150709439
 H        -5.6720885609        3.1663691327       -2.1425968650
 H        -7.6686975022       -2.8316771058       -2.2924522156
 H        -6.8498437300       -2.9798295975       -3.7141846393
 H        -8.7516677788       -0.0090658130       -1.6033147565
 H        -7.5832974177        0.4284415110       -0.5026139327
 H        -7.7772998584       -1.2044630416       -0.7600072524
 H        -7.1386622756        0.0879711391       -4.7314253259
 H        -8.3088031534       -1.0755619032       -3.8778181266
 H        -8.5136255680        0.6067347347       -3.5853347104
 H        -6.4034838473       -5.0384534369       -2.6139068450
 H        -4.8814337712       -4.2059680539       -2.2421809126
 H        -4.4999560001       -2.3862448802        0.9297409855
 H        -4.6543423563       -3.1801355648        2.4643142661
 H        -6.3899950879       -4.6277867492        2.1940147502
 H        -5.4438627771       -6.1733356051        2.3041872365
 H        -7.0815552767       -5.9806127130        1.3310357524
 H        -5.9264970340       -7.1444439082       -0.4969748646
 H        -4.7117254085       -6.0931445487       -1.5297032166
 H        -4.0620774136       -6.9392093698        0.0391119456
 H        -2.0255476689       -3.3705726449        1.7974351117
 H        -2.4592096796       -2.0702259827        2.9141526662
 H         0.1703868935        1.4401878320        2.0313528288
 H        -0.1425327565        2.6417158475        0.8842134291
 H         0.4242880761       -1.9833967511        2.0878984843
 H        -0.5214052424       -0.7176023847        2.8334011775
 H         0.8141406398       -0.3768716052        1.8423325493
 H         0.1067149939       -2.4051723602       -0.6080749894
 H        -0.2635739172       -0.9709614910       -1.6151915908
 H         1.1773187327       -0.9582420443       -0.4226633308
 H        -1.3766517016        3.3608127606        2.7503316279
 H        -2.6044587946        2.7330599104        1.6878184531
 H        -1.1897249401        3.8157820299        6.4970200938
 H        -0.9654963580        2.1393538285        6.9990052609
 H        -3.1174044154        3.4135145553        5.2484663719
 H        -3.6314361476        2.3247253137        6.2913356311
 H        -4.2132523100        2.2651083718        4.5624503887
 H        -2.3847495865        0.1842766747        6.5048719046
 H        -2.9975621070       -0.4494306038        4.9537390029
 H        -1.2386550584       -0.4375204905        5.1339215393
 H         1.5477574520        2.4909795593        6.5884869701
 H         0.7811369532        3.7449525629        7.6173350263
 H         2.1070265350        2.3715194413        3.3904749336
 H         3.2706737621        3.5850006566        2.6414510388
 H         2.4497714589        5.6095390932        3.4042200913
 H         4.0579526670        5.9249557229        4.2970426488
 H         2.4072411830        6.6083504782        4.7109560637
 H         4.6012574507        5.0099561197        6.6332310613
 H         3.1858457762        5.8504856051        7.0171431460
 H         3.2525272381        4.0865277102        7.3529054491
 H         4.0354594436        0.8045119894        3.3328501097
 H         3.3396802112        1.2655076535        1.7764254209
 H         5.6435198013        1.1614863324       -0.6629220397
 H         7.2151488742        0.5586546959       -0.3471622847
 H         8.5688483292        1.2018877454        1.3804009873
 H         8.3612770086        2.4251396531        2.5116339058
 H         7.7159962253        2.6941161631        0.9797137740
 H         5.9468853615        0.0145723079        3.6841074685
 H         7.6290573235       -0.0451875900        3.4542354872
 H         7.0265161819        1.3456689940        4.2067981678
 H         4.9652779442       -1.4225204398       -0.9388459333
 H         6.6763166439       -1.5628132078       -1.2072964397
 H         3.7091040121        0.0150796680       -5.0361381903
 H         3.8592638029       -1.1544867890       -6.2688759875
 H         5.9398997402        0.7175996801       -4.8188182959
 H         6.0884721204       -0.6312840651       -6.1516379232
 H         7.4645136635       -0.1326159370       -5.1366782340
 H         7.2529962326       -2.8047639266       -4.7587121525
 H         7.9537853365       -1.9084714945       -3.5026387775
 H         6.7847177623       -3.1654101556       -3.1780133436
 H         2.1359149434       -2.6441244681       -5.0142029283
 H         1.7522925797       -1.5542221254       -3.8924639686
 H        -1.8001607496        0.9951718556       -5.9889422236
 H        -2.0280103811        1.1286966125       -4.1505887419
 H        -0.4973273874        1.6918516020       -4.8255121838
 H        -2.0647419745       -1.6483537847       -7.2376317656
 H        -0.4841358849       -1.9502778100       -7.9411248021
 H        -0.8662371348       -0.3416125429       -7.4493576409
 H        -1.6955476535       -2.9710008111       -4.9498964360
 H        -0.2680417424       -3.7263281883       -5.8780039691
 H        -0.0084947511       -3.1061332796       -4.3780808673
 Na       -2.9748052967       -0.0888059918       -2.1062935790
