155

 C        -7.1010702491        2.1987934213       -2.6553134825
 C        -6.2087645664        1.0037087876       -2.3977539539
 C        -6.9413417449       -0.4229064755       -2.3434898695
 C        -6.0653536355       -1.5383084986       -2.6528049779
 C        -6.5797165170       -2.9910223500       -2.7895625236
 C        -7.5297963789       -0.4897650461       -0.9196642964
 C        -7.9878516916       -0.3803180245       -3.5451434037
 O        -5.0093334149        1.0465887781       -2.2651682487
 O        -4.8774807965       -1.3240411206       -2.8816144396
 C        -5.6815462186       -3.9877061141       -1.9301967509
 C        -5.9656287696       -4.0727787616       -0.3144578597
 C        -5.2784181040       -5.1938338157        0.3981342697
 C        -3.7955228458       -4.6069171273        0.6358669871
 C        -3.7361589360       -3.4598031729        1.6735734028
 O        -6.5476777931       -3.1777121333        0.2742329474
 O        -2.8354418741       -4.9964504459       -0.0155787868
 C        -5.9926544677       -5.5500110100        1.7485878082
 C        -5.1105734143       -6.5068385908       -0.4554719905
 C        -2.3828132751       -2.7749015188        1.9390302614
 C        -1.8724459818       -1.8442217388        0.7185176137
 C        -0.7226199990       -0.9271839369        0.8357219391
 C        -1.3387264969        0.5475654052        0.4984433101
 C        -0.7599629852        1.7227519371        1.3214701535
 C         0.0804451964       -1.1807404792        2.0936947765
 C         0.2764700035       -1.1275306768       -0.4541414731
 O        -2.4501011160       -1.8424673732       -0.3677207151
 O        -2.1927588521        0.7021390348       -0.3276243262
 C        -1.7466492379        2.3997317810        2.2571446085
 C        -2.3871761215        1.3504062169        3.2923453824
 C        -2.4100359855        1.8749161685        4.8664187039
 C        -0.9000590590        2.0479598302        5.2927606415
 C        -0.6970128754        3.2439627155        6.1984957745
 O        -2.9243820760        0.3094036219        2.9631097820
 O        -0.1037956874        1.2071405333        4.9117632646
 C        -3.3007689234        3.0932372836        5.2353539698
 C        -2.9638209306        0.6790962817        5.7657531211
 C         0.7612980336        3.6519058630        6.4062782218
 C         1.2613371101        4.4376086884        5.2394147453
 C         2.8072767220        4.7683346112        5.2998861645
 C         3.4013903488        3.2718650693        4.6169170014
 C         2.6998771774        2.8489420277        3.3089212637
 C         3.1120869287        5.9014079443        4.3457918252
 C         3.4551223324        4.9527678139        6.6422875679
 O         0.6542249122        4.5696123623        4.1773859896
 O         4.2482889391        2.6659785510        5.1839659122
 C         3.5229298616        1.7324092229        2.7219945507
 C         4.9656455755        2.1410608311        2.4591109021
 C         5.9449012839        1.0510493444        2.3141302323
 C         5.4915779431        0.2023561659        1.1451905180
 C         5.8333553221        0.6899990948       -0.3239152774
 O         5.3011268634        3.3158556145        2.5122006312
 O         4.9208155397       -0.8830198040        1.2693962789
 C         7.3286290306        1.6666304861        2.1489409947
 C         6.0215876048        0.1878358985        3.5813535565
 C         5.7341862250       -0.4564288201       -1.3085967822
 C         5.7169004179       -0.0680758085       -2.8367447940
 C         6.2260808132       -1.0343192929       -3.9758774485
 C         4.9964218191       -1.8922147040       -4.5709103248
 C         3.8271039427       -1.0905378637       -5.3086362419
 C         6.7159111516       -0.1347164232       -5.2131680036
 C         7.3758666326       -2.0069568669       -3.5873019557
 O         5.1643961093        0.9307044537       -3.1808837392
 O         4.9238462791       -3.0783879989       -4.4076701802
 C         2.5727888047       -1.8063613190       -5.3769741498
 C         1.4601838773       -0.8717342218       -5.8926510991
 C        -0.1198873783       -1.2698574932       -5.9393382812
 C        -0.9445633374       -0.4640742161       -4.8802475451
 C        -0.9863770468        0.9561471182       -5.2971976934
 O         1.6504694891        0.2844251873       -6.2214383790
 O        -1.3555554506       -0.9245628127       -3.7946547249
 C        -0.4921564645       -1.0188663122       -7.3733394199
 C        -0.1768578115       -2.7222633083       -5.5981742393
 H        -7.2582183029        2.2579654061       -3.7845450664
 H        -8.0329434085        2.1414389746       -2.1568224279
 H        -6.5870396031        3.1428583421       -2.4806221114
 H        -7.6882643692       -3.1460848106       -2.6116296111
 H        -6.4404741264       -3.2703686914       -3.8053295157
 H        -7.3525169938        0.4176798624       -0.3103228526
 H        -6.9497791347       -1.2284541363       -0.3982450136
 H        -8.5397969353       -0.7710098098       -0.7543072422
 H        -7.4992024359       -0.3946237864       -4.4706630087
 H        -8.5426680791       -1.3111875749       -3.3843861836
 H        -8.5721492794        0.4573508010       -3.3586994384
 H        -5.7375141875       -5.0023730593       -2.2933097034
 H        -4.6487505107       -3.7875381619       -1.9744742496
 H        -4.4141619888       -2.6738766951        1.2922690253
 H        -4.1269315252       -3.8086258058        2.7010450580
 H        -6.4512195773       -4.5950210478        2.0547616484
 H        -5.2886975629       -6.0034611286        2.3392241329
 H        -6.6601499181       -6.3241031978        1.4582417381
 H        -6.0920758601       -6.8691077592       -0.5733049971
 H        -4.5036339326       -6.3880372314       -1.4000528164
 H        -4.6999183053       -7.2804714034        0.1058946534
 H        -1.5640968084       -3.5262868360        2.1167303134
 H        -2.5829717462       -2.2334811211        2.8296903131
 H        -0.0099918648        1.4025628975        2.1166717702
 H        -0.2969321708        2.3855586718        0.5228108445
 H        -0.0448033426       -2.2194100363        2.3242743491
 H        -0.2351763715       -0.7241901229        3.0273415867
 H         1.0944081216       -0.9809313179        1.9156447074
 H         0.8805286323       -2.0752883168       -0.4731390476
 H        -0.3254355054       -0.9919575348       -1.3793896378
 H         0.9368347614       -0.2798321301       -0.3754598730
 H        -1.2045109037        3.1780572324        2.8236329880
 H        -2.6025097825        2.7601791736        1.6912961416
 H        -1.3431503740        4.0663961520        5.8607542097
 H        -1.0838782911        2.9672495132        7.1989585105
 H        -2.9073488289        4.1031806316        5.0809594211
 H        -3.5940604680        2.9090618922        6.3083238663
 H        -4.2874363819        3.1427762554        4.6805182056
 H        -2.9325900887        1.0194312495        6.7105480911
 H        -3.9132237920        0.4902475669        5.3948617863
 H        -2.2229902872       -0.1545586873        5.7190038349
 H         1.4270633811        2.8449661283        6.6699679686
 H         0.8005516087        4.3533969636        7.2897442586
 H         1.7642466794        2.3459604155        3.6299624031
 H         2.6087842329        3.7148390174        2.5601867439
 H         2.2005026594        5.8797666212        3.6355914698
 H         4.0016915184        5.6909396642        3.6527108974
 H         3.2793413967        6.8617276721        4.7954803078
 H         3.0332531434        4.4670719408        7.4628428263
 H         4.4146409103        4.3848412965        6.5825935074
 H         3.7371804653        5.9767903172        6.8939907492
 H         3.3787106803        0.8056257488        3.3059756727
 H         3.1281649407        1.5960247841        1.7569924991
 H         5.2165742630        1.4544795253       -0.7340359155
 H         6.7857686337        1.2081046760       -0.2008482015
 H         8.0054808945        0.8698685610        1.8085464436
 H         7.6443424262        2.0860997470        3.0394859242
 H         7.4514076593        2.4177007319        1.3801114547
 H         5.1248111740       -0.3908638910        3.6291336951
 H         6.8067124988       -0.5135231784        3.6001486475
 H         6.0305700832        0.7472376257        4.4602371268
 H         4.7926277939       -0.9720380167       -1.1790131980
 H         6.6400449447       -1.1156750034       -1.1513986900
 H         3.5483040218       -0.1682389155       -4.8042946328
 H         4.1582600609       -0.7377164869       -6.2536841768
 H         6.0732679747        0.5981051210       -5.4995831428
 H         7.0883731211       -0.8803127247       -5.9282962189
 H         7.5880725767        0.3460501535       -4.7257042174
 H         7.8305157615       -2.5136782816       -4.4560957976
 H         8.1434329034       -1.4616811580       -3.0877981633
 H         7.0765047651       -2.7329807164       -2.9199499551
 H         2.6299791718       -2.8708671363       -5.9354048161
 H         2.3503645861       -2.0496924676       -4.2759308419
 H        -1.4401287610        1.5225015663       -4.5108888586
 H         0.1177911290        1.2379733430       -5.5026236956
 H        -1.5272895413        0.9156495973       -6.2993322539
 H        -1.3625645045       -0.3461294184       -7.5611293177
 H        -0.7037998911       -1.9068873866       -7.9684997891
 H         0.2675352610       -0.4831214532       -7.9314649811
 H        -1.1482279466       -3.1635499567       -5.6224368338
 H         0.3951274619       -3.2854361557       -6.3616916061
 H         0.1435589207       -2.8097886265       -4.5507485441
 Na       -2.9345411677       -0.2765751018       -2.1471683484
