155

 C        -6.4921118426        2.2570463849       -2.7926221689
 C        -5.8654669495        0.8728328802       -2.5623486756
 C        -6.7313939423       -0.5155708915       -2.2993941250
 C        -5.9325378467       -1.8312478398       -2.7174027598
 C        -6.7248156258       -3.1446537477       -2.6222475085
 C        -7.3237247008       -0.5778950229       -0.8541951905
 C        -8.1068433218       -0.4858926861       -3.1484366252
 O        -4.6552027540        0.8188802900       -2.4630381779
 O        -4.7377070900       -1.9198020344       -2.9785387833
 C        -5.9487180698       -4.2968698064       -1.9566911468
 C        -5.7407184574       -4.2020169260       -0.4373470032
 C        -5.0121076487       -5.3096227058        0.3384400759
 C        -3.5287489986       -4.6307720885        0.4462582927
 C        -3.3033229827       -3.7435422885        1.7089245613
 O        -6.3864422519       -3.3735542473        0.1926268799
 O        -2.6235137449       -5.0617450486       -0.2367840183
 C        -5.6194589753       -5.5778613862        1.7238676364
 C        -4.8804460351       -6.5762579897       -0.5671012220
 C        -2.0334203448       -2.9542548436        1.7676816686
 C        -1.8556910821       -2.0337861715        0.5510813691
 C        -0.5600833325       -1.0312827993        0.3381788119
 C        -1.1803780236        0.4958361100        0.5335943261
 C        -0.6807789680        1.6170710735        1.5627054973
 C         0.6052951061       -1.3621627880        1.3561712017
 C         0.0708418033       -1.1484255162       -1.1403321614
 O        -2.6710503833       -2.0857772170       -0.2854468774
 O        -2.0840052421        0.8328712346       -0.1989200693
 C        -1.7820741999        2.4610181391        2.3929600719
 C        -2.4498708587        1.5485818376        3.5129756592
 C        -2.8430587500        2.2512475198        5.0086187368
 C        -1.3849197436        2.5755207532        5.4193470273
 C        -1.0885160447        3.6032057673        6.4171702194
 O        -2.6523808434        0.3927653409        3.3918387848
 O        -0.4372628088        1.9518078867        4.9713546535
 C        -3.6920287427        3.5748713757        4.8228044977
 C        -3.4519198432        1.1477610976        5.9518243803
 C         0.3494315032        3.8024194709        6.6564363313
 C         0.9297356361        4.6510059699        5.4566877138
 C         2.4351107255        4.5819938212        5.1490828246
 C         2.9101036869        3.1090870385        4.7498065713
 C         2.3747208445        2.5436391184        3.4135133727
 C         2.7573089532        5.5182860163        4.1103879338
 C         3.2343083239        4.8317911308        6.4734899289
 O         0.1553932794        5.1572368104        4.7295368789
 O         3.6059141256        2.3626244859        5.4037665192
 C         3.3206002529        1.4489628398        2.8452049350
 C         4.7504182283        1.9230777855        2.5124485697
 C         5.8023646482        0.7618739920        2.2510818281
 C         5.3758758228        0.1840510763        0.8628054481
 C         6.0175278533        0.7018329402       -0.4370258665
 O         5.0769989245        3.0919201865        2.4539240626
 O         4.4363183200       -0.5733940378        0.8483722347
 C         7.2494798978        1.3162643625        2.1926222354
 C         5.7385721095       -0.3728726196        3.2966771404
 C         6.3037538805       -0.5070712909       -1.3923144696
 C         5.9788135585       -0.1220036277       -2.9003151479
 C         6.4988005017       -0.8784028457       -4.1740894926
 C         5.2168614872       -1.5487021406       -4.8047945323
 C         4.1865851193       -0.6731400540       -5.2553970051
 C         7.1102211267        0.1211152153       -5.1848968721
 C         7.4276481275       -1.9803827311       -3.6601172065
 O         5.2685778296        0.8218438591       -3.0651528660
 O         4.9815329100       -2.7353088935       -4.6087912339
 C         2.8214807689       -1.3508279911       -5.5816301828
 C         1.6206103663       -0.4093146359       -5.6073898101
 C         0.1104105295       -1.0431312434       -5.6967485044
 C        -1.0082520798       -0.4459546035       -4.7527070035
 C        -1.3533661922        1.0101962196       -4.8314692799
 O         1.8431360695        0.7947445658       -5.5400177642
 O        -1.5832216955       -1.1661546980       -3.9631265244
 C        -0.2869373493       -0.8051715015       -7.1574026510
 C         0.1459777036       -2.5892577029       -5.3724830327
 H        -6.8566533126        2.2561616402       -3.8581099572
 H        -7.3135123545        2.5280263071       -2.1359419877
 H        -5.7893050447        3.0336907958       -2.6116761163
 H        -7.6220610458       -2.8594203282       -2.0761085935
 H        -6.9225527966       -3.4611638434       -3.7342105021
 H        -8.3994921742       -0.3292855923       -0.8817541452
 H        -6.8898450862        0.1647669719       -0.2301243269
 H        -7.2552344052       -1.4893379135       -0.2882973430
 H        -8.0524370970       -0.4209509835       -4.2052653005
 H        -8.5758039771       -1.3521350296       -2.7955689662
 H        -8.5876097496        0.2520857155       -2.6469518288
 H        -6.4150887816       -5.2519150826       -1.9750042892
 H        -4.9730381348       -4.3944372145       -2.4646707306
 H        -4.2764219883       -3.2005548674        1.8302822892
 H        -3.3509162997       -4.5640558244        2.5196725172
 H        -6.1752559923       -4.6803441428        2.0847460826
 H        -4.8134960516       -5.8879595880        2.3361583490
 H        -6.2718905030       -6.3573759333        1.5537692547
 H        -5.7648412976       -6.9802070683       -0.8315714914
 H        -4.4596939053       -6.4419456918       -1.5487112601
 H        -4.3139865813       -7.2500764109       -0.1239194198
 H        -1.1671399832       -3.6581967581        1.7927194980
 H        -1.9845681442       -2.2772754182        2.6565848205
 H         0.0572447908        1.3741319763        2.2971861779
 H        -0.2575609100        2.3777579019        0.8687821996
 H         0.9186949448       -2.4166813536        1.3675903416
 H         0.2757472497       -1.2674900166        2.3940574382
 H         1.5600966613       -0.7479767914        1.2458048732
 H         0.7214275770       -2.0237195236       -1.2171486404
 H        -0.6109044161       -1.0725204770       -1.9666810332
 H         0.7479228766       -0.2426401889       -1.2328666758
 H        -1.2174996659        3.2520078386        2.7824121489
 H        -2.5961364018        2.8301138619        1.6478888090
 H        -1.5051654166        4.5240951849        5.9267659371
 H        -1.7390456527        3.5055760465        7.3293549885
 H        -2.9152608292        4.2418444215        4.2694513597
 H        -4.0580221953        3.9987815745        5.7713348283
 H        -4.5892487857        3.4077038184        4.1763850976
 H        -3.8829722558        1.6672790261        6.7767344873
 H        -4.1932617593        0.6774275000        5.3786966701
 H        -2.6400358672        0.4545485006        6.1568518695
 H         0.8817195245        2.8550265371        6.8959189864
 H         0.5556421193        4.4639227075        7.5144069689
 H         1.2421664297        2.3807666169        3.2588060272
 H         2.6111375932        3.3858846152        2.7505950103
 H         2.2122894382        5.4077279814        3.2110635497
 H         3.8093411827        5.3105848543        3.7752351221
 H         2.8105093462        6.5548926421        4.5093920841
 H         3.2474373692        3.9249821207        7.0602758957
 H         4.2631404616        5.2581563655        6.2889722804
 H         2.9643566271        5.6019872465        7.1329474894
 H         3.4971758916        0.6427144716        3.5547769536
 H         2.8960546195        0.9683385939        1.9486951615
 H         5.0910461639        1.2320561093       -0.8821693540
 H         6.8915323607        1.2714550306       -0.1623812543
 H         7.9530592903        0.7083803724        1.5489958551
 H         7.6855089846        1.2449699285        3.1441785672
 H         7.2216825616        2.3696138900        1.8694170500
 H         4.9715203446       -1.1115932681        3.4121643202
 H         6.6215440136       -0.8361398844        3.1209878904
 H         5.7879234582        0.0398381953        4.2497268104
 H         5.6926275237       -1.3434745275       -1.0175685995
 H         7.3630160764       -0.8579965598       -1.3111955533
 H         4.0676801485        0.0173322552       -4.4220142349
 H         4.4646054293       -0.0690480971       -6.1698458544
 H         6.2780438085        0.3311195826       -5.8522705861
 H         7.8297257636       -0.2818696349       -5.8242627844
 H         7.5296904243        0.9620969980       -4.6623599869
 H         7.8675397932       -2.6022832044       -4.4672129533
 H         8.2232658001       -1.5958524986       -3.0632660862
 H         6.8404882591       -2.6696573607       -3.0192900372
 H         2.7201374044       -1.7489001491       -6.5686486830
 H         2.6579947509       -2.1640370485       -4.8402106464
 H        -0.3748492809        1.5298571332       -5.1243615697
 H        -2.0297263469        1.2113736325       -5.6411171348
 H        -1.7879989512        1.1772562522       -3.8548664806
 H        -1.0324118463       -1.4010133647       -7.5761095325
 H         0.5532071207       -0.7446542471       -7.8008700340
 H        -0.6621786467        0.2727141009       -7.2016453192
 H        -0.7865222903       -3.0018176063       -5.8198237178
 H         0.9562459885       -3.1803831072       -5.8166307255
 H         0.1573358161       -2.8311296411       -4.2874311597
 Na       -2.8812922731       -0.6381449982       -1.9996659031
