155

 C        -6.5879525745        1.9846841092       -3.1999545178
 C        -5.8040999703        0.7593283607       -2.8284061536
 C        -6.6431135116       -0.4011616678       -2.2730996588
 C        -5.8202086899       -1.7613989355       -2.3908530311
 C        -6.6749098916       -3.0652790978       -2.2154594683
 C        -6.8145066052       -0.1602564629       -0.7644121071
 C        -7.8558504209       -0.4581833226       -3.2973571063
 O        -4.5789804060        0.7649589067       -2.9488044332
 O        -4.6178635544       -1.7946099619       -2.5866547651
 C        -5.9656743099       -4.3997072609       -1.8299778518
 C        -5.5397079851       -4.4297365739       -0.3339466694
 C        -4.5842792846       -5.6056721174        0.1811755865
 C        -3.1954073313       -4.9905452285        0.5254893517
 C        -3.1119494618       -3.9888348955        1.7304758049
 O        -5.7934528016       -3.4885411121        0.4302007251
 O        -2.3429202331       -5.0954292514       -0.3515196045
 C        -5.1961123588       -6.1404207399        1.5297987712
 C        -4.5309341025       -6.8469382097       -0.6723063296
 C        -1.9029325096       -3.1384918626        1.7134509619
 C        -1.7946132235       -2.1288411126        0.5824479328
 C        -0.4063130110       -1.1695218379        0.5929958464
 C        -0.9143738673        0.3039969473        0.4614527865
 C        -0.7574551193        1.3636977514        1.5820292443
 C         0.4414810272       -1.2783362221        1.8617652652
 C         0.3071632147       -1.4938453221       -0.6910770466
 O        -2.5153676144       -2.0666751394       -0.3614564252
 O        -1.6367557600        0.5882257717       -0.4342080602
 C        -2.1781227913        1.9284704507        2.0453549169
 C        -2.6600505945        1.3960169405        3.4118019607
 C        -2.8951220157        2.4402501203        4.5496066435
 C        -1.5026646174        2.6857450407        5.2181852884
 C        -1.3961483384        3.6094976070        6.4423571825
 O        -2.8017477681        0.2323812689        3.6502848826
 O        -0.4999723878        2.2286965887        4.7187958873
 C        -3.5406463894        3.7994156142        4.1374904003
 C        -3.8093955462        1.7638993734        5.6429963654
 C         0.0589164277        4.0595208042        6.7281077998
 C         0.6807700988        4.6227006875        5.4426461470
 C         2.2311589881        4.5851885668        5.3084971954
 C         2.4461963502        3.0306056925        5.0126996002
 C         2.3707153444        2.5408962490        3.5625785684
 C         2.7799799969        5.4162698617        4.1915401771
 C         2.8196784330        5.0015071479        6.6444719486
 O        -0.0333910675        5.1796201232        4.6162566587
 O         2.4901724144        2.2693729971        5.9069145204
 C         3.2206287234        1.3466967023        3.1958986319
 C         4.5330558105        1.7127044826        2.4914729143
 C         5.5486561839        0.5530362325        2.1998247584
 C         5.3162373687        0.0578179868        0.7832097566
 C         6.3405918999        0.4375262904       -0.3308371773
 O         4.8414033180        2.8319804072        2.1947259305
 O         4.4179918983       -0.7159254898        0.5928574114
 C         7.0240553949        1.1433534757        2.4521234273
 C         5.1752780011       -0.6792583913        3.1883225374
 C         6.1339758729       -0.4566597788       -1.5932442720
 C         6.2441181463        0.2657835020       -2.9709726102
 C         6.5681188307       -0.6126258174       -4.3359038526
 C         5.1737904362       -1.2338296502       -4.7895321192
 C         4.1111224259       -0.2145510367       -5.1929084636
 C         7.2271927997        0.2322560923       -5.4262170288
 C         7.4072071525       -1.9058633560       -3.9533294770
 O         6.0227626269        1.4708658180       -2.9526037046
 O         4.9120451848       -2.3958756072       -4.6737845265
 C         2.8131211553       -1.0781129292       -5.5039182295
 C         1.5052688618       -0.2583382123       -5.1909355598
 C        -0.0043691355       -0.8799369399       -5.7452742905
 C        -0.9490466896       -0.3695820450       -4.7188557889
 C        -1.4518957234        1.1363892487       -4.6414322057
 O         1.4955117176        0.8882453704       -4.7743454985
 O        -1.4280291474       -1.1976410091       -3.9542790098
 C        -0.2346432865       -0.1859000872       -7.1128695042
 C         0.1069871964       -2.5041164820       -5.7979460508
 H        -6.8332756446        1.9334667376       -4.2036784585
 H        -7.5599096438        2.1598281641       -2.6451503618
 H        -5.9288265888        2.8671665564       -3.0424021885
 H        -7.4634722386       -2.6610622378       -1.5472802401
 H        -7.0334001069       -3.3513886250       -3.1962207727
 H        -6.5793775864       -0.9908301794       -0.1875271075
 H        -7.8529191149        0.1120994538       -0.5462141860
 H        -6.1262808619        0.6374472827       -0.4042126432
 H        -7.5594894051       -0.8082634741       -4.2842753820
 H        -8.6480794861       -1.0197060700       -2.9114035662
 H        -8.2010769619        0.5815490746       -3.2911756951
 H        -6.7289277468       -5.2317980102       -1.9213068604
 H        -5.1034786920       -4.5118913302       -2.5248659123
 H        -4.1210825692       -3.6160533132        1.7985350839
 H        -3.0009290187       -4.6125930280        2.5577922969
 H        -5.7939577793       -5.4229274622        2.0163174044
 H        -4.3757631209       -6.4141173772        2.2593197756
 H        -5.8017989315       -7.0449591019        1.3047276770
 H        -5.4686338519       -7.4352879137       -0.9017225183
 H        -4.0465792978       -6.7008484559       -1.7766373263
 H        -3.9166880309       -7.6900836872       -0.2818695188
 H        -0.9557745051       -3.6366137950        1.7786157572
 H        -1.9794862944       -2.4346965365        2.5984904578
 H        -0.1173822753        1.1944608030        2.4055644729
 H        -0.2463931400        2.1653835196        1.1150939619
 H         0.8165980078       -2.2834763623        2.1648762131
 H         0.0692708930       -0.6329062693        2.6411533187
 H         1.3598274967       -0.6344114469        1.6367494173
 H         0.5146992040       -2.5739016851       -0.6846086835
 H        -0.2842185499       -1.3030829551       -1.5920813015
 H         1.2809788394       -0.9917791280       -0.7334730610
 H        -1.9983532640        3.0745321059        2.1554130997
 H        -2.8446450247        1.8833688596        1.2484661026
 H        -1.8827150868        4.5540568121        6.1601725974
 H        -1.9217133050        3.2587668057        7.3452817317
 H        -2.8520160592        4.6349358742        4.1670806000
 H        -4.2073101794        4.1638765291        4.9355000188
 H        -3.9349745923        3.6418122825        3.1392967705
 H        -3.9214780790        2.5219327687        6.5043678376
 H        -4.7871757834        1.4460247266        5.2031056533
 H        -3.2951780353        0.9079796554        5.9356183991
 H         0.6903759155        3.2072502687        7.0783539604
 H        -0.0355759837        4.7880015675        7.5416865695
 H         1.3335431498        2.4772549501        3.3482284061
 H         2.5574201019        3.3445525696        2.8533879453
 H         2.1691070676        5.3699738971        3.3266279830
 H         3.7695096891        5.1846296316        3.9593943598
 H         2.7000805127        6.5075633481        4.3671370077
 H         2.8506331961        4.2944957891        7.4967536020
 H         3.8282916428        5.3060654780        6.7034701640
 H         2.0953108653        5.6859388963        7.0910987238
 H         3.4225163808        0.6960222374        4.0893408754
 H         2.6404974896        0.6844028370        2.4869137717
 H         6.2435794083        1.5379264822       -0.5297852749
 H         7.3482161545        0.1375961422        0.1316044192
 H         7.7514832018        0.4533902118        2.1250652550
 H         7.2302328245        1.3612473023        3.5703428343
 H         7.0875552835        2.1477880900        2.0126716620
 H         4.3401226071       -1.1849408078        2.7745955749
 H         5.9469614353       -1.4240855864        3.2036169067
 H         5.1169910538       -0.4533989888        4.2344135773
 H         5.0846651779       -0.9204653983       -1.6268595607
 H         6.7078775682       -1.3438070056       -1.5929537072
 H         3.8985715058        0.2835380171       -4.1767061308
 H         4.5073892029        0.5518166707       -5.8578020317
 H         7.5879185139        1.2596555671       -5.0873997141
 H         6.5626414045        0.3025255747       -6.2775250693
 H         8.0985603139       -0.1737113268       -5.8267114185
 H         7.8207718895       -2.3072387897       -4.8539200873
 H         8.3220483216       -1.7551700839       -3.3183572310
 H         6.7255007388       -2.6837422401       -3.4544007934
 H         2.8436000645       -1.6438393154       -6.3677902037
 H         2.7411655789       -1.7848920986       -4.7222126083
 H        -0.6670781272        1.8553362263       -4.3431933866
 H        -1.9291791095        1.3669897885       -5.5548113882
 H        -2.1934731059        1.0271831627       -3.8766112424
 H        -0.9288406798       -0.7529721357       -7.6886963832
 H         0.6486856007       -0.1856716297       -7.7547697098
 H        -0.6506203558        0.7944404566       -6.9375215298
 H        -0.8436399748       -2.9635580581       -6.1731123149
 H         0.9619600319       -2.7453825786       -6.4390723889
 H         0.3424796053       -3.0185897397       -4.8691723783
 Na       -2.7368728983       -0.7086766604       -2.1000684523
