155

 C        -6.3972797002        2.0796052195       -3.3423879933
 C        -5.7174513432        0.7519444534       -2.9471033920
 C        -6.6204906641       -0.4981797446       -2.4316991866
 C        -5.8512885119       -1.9107344891       -2.3834545605
 C        -6.6817509164       -3.1939111100       -2.0678019055
 C        -6.9314524322       -0.0354512411       -0.8726989578
 C        -8.0222978112       -0.7150283859       -2.9501690635
 O        -4.5320906217        0.7031625079       -2.9846584607
 O        -4.6875499895       -1.9970840838       -2.5481784099
 C        -5.6988759147       -4.3098458929       -1.8226947825
 C        -5.5060674153       -4.4620381926       -0.3002513941
 C        -4.5473231711       -5.5965609138        0.1662985812
 C        -3.1054965317       -4.9451722786        0.3920280828
 C        -3.0559688004       -4.0726455028        1.6884530647
 O        -5.7680712088       -3.5847986632        0.4776853392
 O        -2.1869929080       -5.3254684065       -0.2685494814
 C        -5.1711003019       -6.1527615497        1.3888803197
 C        -4.4496078444       -6.5876608288       -0.9517818871
 C        -1.8343251800       -3.2511821149        2.0082353695
 C        -1.5774982543       -2.2130339643        0.8626011669
 C        -0.4416089607       -1.2060249612        0.8111282989
 C        -0.8832131705        0.2809833037        0.5486422595
 C        -0.8647034759        1.2465891971        1.6773388218
 C         0.5259735249       -1.3291878710        1.9773820104
 C         0.4274889297       -1.6480931911       -0.4159540612
 O        -2.3825280611       -2.2960856665       -0.0635728091
 O        -1.4717250195        0.6285703290       -0.5012649520
 C        -2.1057193008        2.0724300007        2.0807252600
 C        -2.7707790365        1.5216343341        3.3263355273
 C        -3.1238492472        2.4687484943        4.4461512318
 C        -1.7387047322        2.7231618445        5.2090362417
 C        -1.5417237949        3.6363094051        6.4470605137
 O        -2.7459268537        0.2879285687        3.4385451166
 O        -0.7599670478        2.1518617883        4.7753108349
 C        -3.7714490104        3.7283246238        3.7690055225
 C        -4.1339628512        1.8053000734        5.4881471476
 C         0.0109340683        3.9525034994        6.5872285142
 C         0.6031673422        4.7739864903        5.4156456528
 C         2.2028437405        4.6620473701        5.3220649430
 C         2.3044558190        3.1421771855        4.9559782904
 C         2.4641941464        2.6704841578        3.4947105972
 C         2.7099655607        5.5962834467        4.3077399244
 C         2.8274103653        4.8497416480        6.7368603107
 O        -0.0551311169        5.1858706041        4.5001789568
 O         2.3596577188        2.2396920670        5.8106324544
 C         3.4094856796        1.4134187500        3.3800863554
 C         4.5988930593        1.6473784002        2.3913020179
 C         5.6221783096        0.3701236440        2.2721371113
 C         5.2793506889       -0.0064924394        0.7908110736
 C         6.2240552334        0.4054292513       -0.3723038539
 O         4.8820610438        2.7185473663        1.8771599238
 O         4.2055887008       -0.5656493514        0.5314199135
 C         7.0162936088        0.8058042384        2.5819648990
 C         5.3430387322       -0.8122088145        3.2158875172
 C         5.9040186220       -0.3150996059       -1.6053677274
 C         6.3214591809        0.3634685028       -2.8828371761
 C         6.4923511200       -0.5707647310       -4.1539848895
 C         5.1689644648       -1.1723869499       -4.5795330099
 C         3.8872439660       -0.2400541769       -4.9880940366
 C         7.0005700207        0.3660942376       -5.3093620891
 C         7.5886228557       -1.6212971474       -3.9151267063
 O         6.4833823969        1.5606780311       -3.0383289234
 O         5.0065815563       -2.3791617614       -4.6825212343
 C         2.6754317591       -0.8489155804       -5.6253159012
 C         1.3965173637       -0.0895827183       -5.1922215291
 C         0.0176943372       -0.7357775809       -5.8396925570
 C        -1.0234038646       -0.3079002763       -4.7948539760
 C        -1.4182061476        1.1493310356       -4.5469975261
 O         1.5110582508        0.9542769169       -4.6059217460
 O        -1.5305170317       -1.2442862163       -4.1639083079
 C         0.0274530713       -0.0497094393       -7.1945118470
 C        -0.0153126389       -2.3318743513       -6.0463162992
 H        -7.1795449712        1.9610926546       -4.1698268501
 H        -6.9419095439        2.4925052105       -2.5507402096
 H        -5.5857783062        2.7099594081       -3.7207614855
 H        -7.2467945289       -2.9121395588       -1.1787338639
 H        -7.3108896008       -3.4441799888       -2.9060285935
 H        -6.6560276428       -0.7730994351       -0.0457231496
 H        -8.0065759601        0.0378832501       -0.8440721393
 H        -6.4533760114        0.8731904947       -0.5928637198
 H        -8.0349170133       -1.0983872982       -4.0150571709
 H        -8.4221688351       -1.5186260154       -2.2082784434
 H        -8.6778971951        0.1467552910       -2.7165640584
 H        -5.9227328905       -5.2312142899       -2.3182881995
 H        -4.7127740192       -3.8974122687       -2.1102408955
 H        -3.9384510218       -3.4738934153        1.4777671960
 H        -3.3867510993       -4.7264150686        2.5784659443
 H        -5.3798245987       -5.3159264978        2.1454481445
 H        -4.4746552507       -6.8985596392        1.8308387628
 H        -6.0712569474       -6.7824096195        1.1154679125
 H        -5.3930040233       -7.0397022312       -1.1437712892
 H        -3.9871320314       -6.3855412454       -1.7915108426
 H        -3.9711331304       -7.5191790295       -0.6316305462
 H        -0.8683605643       -3.8121290909        1.9733065364
 H        -1.9290346417       -2.7675446969        2.9279005673
 H        -0.6338717036        0.6482102920        2.6204666563
 H        -0.0088863882        1.9840425166        1.6988485147
 H         1.2202018871       -2.0537916979        1.6002256188
 H         0.0959955239       -1.6579215917        2.9429665102
 H         1.0931302117       -0.4813332483        2.2453249410
 H         1.0107791502       -2.5412785494       -0.3103809806
 H        -0.1871057713       -1.7965226673       -1.3033700600
 H         1.0502834683       -0.8083039995       -0.6005960175
 H        -1.8133242388        3.0570351321        2.1033457980
 H        -2.9441588428        2.1613707660        1.3027425774
 H        -2.2563311523        4.4430477812        6.5305905844
 H        -1.7319998266        2.9523246054        7.2534773071
 H        -2.9977938075        4.2416672519        3.2104635397
 H        -4.1091661227        4.4595656498        4.4935414041
 H        -4.5601676211        3.3982487187        3.0852733764
 H        -4.3328595840        2.5318612586        6.2429457727
 H        -5.0325544296        1.5340178535        4.9169934341
 H        -3.6314027759        0.8545423497        5.8843220045
 H         0.4255641167        2.9983397625        6.7399089546
 H         0.2120926940        4.6079739556        7.4659620874
 H         1.3895859432        2.4019818451        3.2244608577
 H         2.5032487286        3.3768932516        2.6159387993
 H         1.9141734330        5.8159402734        3.5282052143
 H         3.5819425744        5.2077575190        3.7511836070
 H         2.9528957161        6.5448065074        4.6282206854
 H         2.8393524891        4.0549624153        7.4358647051
 H         3.9056268391        4.7576579916        6.5960390439
 H         2.6050979568        5.6573542162        7.4153422236
 H         3.8852078699        1.2115980810        4.3392430889
 H         2.8526076335        0.5050245736        3.1576982076
 H         6.1013524233        1.4719477725       -0.4995412642
 H         7.1783409522        0.2485307492        0.0234842143
 H         7.6356245553       -0.1359184075        2.4620786597
 H         7.0892231661        1.1484473407        3.5787078988
 H         7.3695759259        1.6505956137        1.9691024212
 H         4.2629813251       -1.1089179561        3.2318985510
 H         5.8806339448       -1.7866999831        2.9771152616
 H         5.8130494867       -0.5866729842        4.2111139525
 H         4.8562224485       -0.5542065080       -1.5433211563
 H         6.3805699707       -1.3565295488       -1.7463039715
 H         3.6034235164       -0.0193183523       -4.0122411589
 H         4.2297202594        0.7329759148       -5.3605173977
 H         7.9470544894        0.7262829420       -5.0200251679
 H         6.2946843079        1.1511027589       -5.6514931739
 H         7.2709621357       -0.1507589176       -6.3165863830
 H         7.8084643140       -2.2240932692       -4.8484756293
 H         8.5238510428       -1.0819798204       -3.7240431409
 H         7.4238078042       -2.2788787865       -3.1155531033
 H         2.8230680316       -1.0037114212       -6.7914576789
 H         2.5933795773       -1.9492027196       -5.2327522468
 H        -0.5523989195        1.6404083852       -4.1856967201
 H        -1.8387443369        1.4909228239       -5.5469663858
 H        -2.2492959055        1.2023190995       -3.8161740125
 H        -0.9004487694       -0.1275453777       -7.8574709164
 H         0.7709536185       -0.5962827658       -7.7661897461
 H         0.3038828387        0.9667184680       -7.0225142477
 H        -1.0032984090       -2.6962907272       -6.2072624988
 H         0.5994300236       -2.6192878068       -6.9300668544
 H         0.4230757823       -2.8689349207       -5.1883204487
 Na       -2.5873514611       -0.6788650197       -2.0747899587
