155

 C        -6.2532068664        1.7830435289       -3.8935259668
 C        -5.5521717662        0.7134748960       -2.9937015824
 C        -6.4312670083       -0.4871837499       -2.2313310966
 C        -5.8080232090       -2.0268058507       -2.2747478249
 C        -6.6359895177       -3.2494414753       -2.0484671644
 C        -6.6326380323       -0.1457373453       -0.7650532509
 C        -7.8772885158       -0.5059630222       -2.7803987633
 O        -4.3749957442        0.8461222148       -2.7654203339
 O        -4.5905466655       -2.1917325609       -2.3387034943
 C        -5.7873030550       -4.5238749135       -1.7771235606
 C        -5.2410266400       -4.5255263202       -0.3423844708
 C        -4.3477895841       -5.6856658489        0.0481818129
 C        -3.0627884701       -5.0704237940        0.6435792020
 C        -2.9971665634       -4.0750734206        1.8057214978
 O        -5.7484695921       -3.7364180271        0.4460092783
 O        -2.0116930224       -5.4307368020        0.1181607761
 C        -5.0214245226       -6.5073911061        1.2115013517
 C        -3.9585924822       -6.6669905283       -1.0337509865
 C        -1.7173158963       -3.3331944170        2.0301551391
 C        -1.5586838540       -2.3648782506        0.8449924660
 C        -0.3020163377       -1.3556136965        0.8461659697
 C        -0.9094181092        0.0986723079        0.7251485329
 C        -0.7358518577        1.1815264406        1.8213393199
 C         0.5746413560       -1.5275046234        2.0532149091
 C         0.5708480558       -1.7510734953       -0.3606508374
 O        -2.3789708183       -2.3569893535       -0.0372349951
 O        -1.6274607713        0.3482185386       -0.2440721397
 C        -1.9521079049        2.1035684426        2.0075227585
 C        -2.9414331695        1.5539774416        2.9995463281
 C        -3.2579727220        2.4646398032        4.2233113761
 C        -1.9601031881        2.7904020496        5.0501324625
 C        -1.9506915297        3.9871202426        6.0856626971
 O        -3.4353559051        0.4665522567        2.8195012839
 O        -0.9287561081        2.1896755433        4.8823352274
 C        -3.8695040953        3.7581828700        3.5431852067
 C        -4.1971157888        1.7229498822        5.1777119644
 C        -0.4489317231        4.0447306037        6.5255121109
 C         0.4128057526        4.6195726042        5.3770163582
 C         1.9041497416        4.6229552167        5.4877989515
 C         2.3890905303        3.1123767027        5.0784574115
 C         3.0491638792        3.0016554829        3.6305055270
 C         2.5161928917        5.6746370274        4.4121202675
 C         2.3322049982        4.8641581714        6.8797141074
 O        -0.1785725484        5.2588498412        4.4983806324
 O         2.3286058945        2.2142355653        5.8652602753
 C         3.5319363111        1.5284320913        3.2959264406
 C         4.7879279551        1.5756167743        2.4051334586
 C         5.5118751335        0.2115910038        2.1920009099
 C         5.0410505160       -0.2356749866        0.7560071081
 C         5.9697469571        0.2150360208       -0.3341318641
 O         5.2224932250        2.5341828620        1.8251007491
 O         3.9681758661       -0.8040339112        0.5142440271
 C         7.0393805391        0.5619715364        2.2830993729
 C         5.3110872887       -0.9990326473        3.1790030842
 C         5.5074528052       -0.0389895379       -1.7329502552
 C         6.4594752911        0.5756030774       -2.8988354374
 C         6.5381899159       -0.2673189692       -4.2945191170
 C         5.1505429200       -1.1912027415       -4.5646145416
 C         3.8588867089       -0.2828466080       -4.4970219432
 C         6.9123357608        0.7333133901       -5.3740165868
 C         7.6106105966       -1.3251095999       -4.0877607968
 O         7.0675983717        1.6194627249       -2.7488101501
 O         5.0068238101       -2.3443880585       -4.6040033820
 C         2.7270372511       -0.7586204845       -5.3167867311
 C         1.3833763014       -0.0258606856       -5.1116175399
 C         0.0409735298       -0.3997014402       -5.8649976661
 C        -1.0145830756       -0.1001719979       -4.7890828206
 C        -1.6172559236        1.2680096455       -4.6599055029
 O         1.3346861105        0.9165793195       -4.3340805217
 O        -1.3243367400       -1.0864713246       -4.0823957171
 C        -0.0056810372        0.4386300228       -7.1964720017
 C         0.1022130879       -1.9006901674       -6.3067148938
 H        -7.0462828115        1.4937621597       -4.5695029660
 H        -6.7567116086        2.4336961151       -3.2276171279
 H        -5.4764798738        2.2223004411       -4.5541509544
 H        -7.4394250911       -3.1015210593       -1.3318726432
 H        -7.0781895386       -3.3671701812       -3.0034121289
 H        -7.5659723278       -0.5994811163       -0.3528068954
 H        -6.7223238699        0.9237902632       -0.5872376299
 H        -5.7848838694       -0.4905341715       -0.2230134996
 H        -8.0240807718       -0.4067921869       -3.8987897660
 H        -8.3269627376       -1.4621203481       -2.3964602558
 H        -8.5106196972        0.3564360023       -2.3658994355
 H        -6.5010298108       -5.3801564529       -1.8236712603
 H        -4.9408725358       -4.6943555551       -2.5028085841
 H        -3.8497326535       -3.4639607689        1.6588622560
 H        -3.1630777808       -4.7510870190        2.6662711255
 H        -5.4670043298       -5.7796973809        1.9164566441
 H        -4.3704947104       -7.2142625228        1.7922785895
 H        -5.9077807177       -7.1791829415        0.8802350881
 H        -4.8053670320       -7.0706925630       -1.5397965359
 H        -3.4232823894       -6.0875613755       -1.8758757096
 H        -3.2468378695       -7.4381899899       -0.8838886715
 H        -0.7650473974       -3.8773370885        2.1075777847
 H        -1.8122337114       -2.7787819638        2.8860994664
 H        -0.4707107402        0.6761834273        2.8118834051
 H         0.1263128751        1.7825298444        1.5466638604
 H         0.8728326604       -2.6123130561        1.9919651766
 H         0.0561078846       -1.5413252143        3.0447477703
 H         1.5143452976       -1.0441013993        1.8767370926
 H         0.8145396244       -2.8248560075       -0.4026288405
 H         0.0240601177       -1.4735226185       -1.2830219993
 H         1.4222038571       -1.1119677992       -0.3646394133
 H        -1.7716094467        3.1357814242        2.1964312282
 H        -2.4297235861        2.1143382086        1.0145889033
 H        -2.3655558646        4.9427398976        5.7956333146
 H        -2.5701680697        3.6154898108        6.8808944963
 H        -3.1787539473        4.4133212129        3.1192467130
 H        -4.6280921386        4.1567793189        4.2031769488
 H        -4.5547749748        3.4104358852        2.7737348776
 H        -4.3699288832        2.3624972089        6.1078559517
 H        -5.2039108847        1.5427012967        4.6339158218
 H        -3.7169449357        0.8064266665        5.4998153463
 H        -0.0892067812        3.0661350440        6.6709522268
 H        -0.3332730872        4.6702749304        7.4453821570
 H         2.3755267156        3.4209966430        2.8470212360
 H         3.8107615702        3.7912053121        3.4041971098
 H         2.3176739962        5.3744770166        3.3586778316
 H         3.4628105599        6.0886637451        4.4231377676
 H         1.9295683015        6.5125655292        4.5860735954
 H         2.0622020558        4.0921490321        7.6067782273
 H         3.3618499682        5.0977491286        7.1142187095
 H         1.9478241151        5.8052461950        7.3547618019
 H         3.7143558625        0.9971731256        4.2632669612
 H         2.7729401608        0.9041466369        2.7502824435
 H         5.9968071592        1.2696854649       -0.0655748024
 H         6.9747191348        0.0441888309       -0.1681314620
 H         7.5517250013       -0.2453867247        1.7164569901
 H         7.2398142036        0.4592187676        3.3712287428
 H         7.3538319269        1.4870588007        1.7949687356
 H         4.3699192324       -1.4757643769        2.9661214068
 H         6.1722869391       -1.7244590427        3.0008416271
 H         5.2142261618       -0.6087597337        4.2202339203
 H         4.5532284817        0.3978258347       -1.9417711689
 H         5.5361970919       -1.1913800337       -1.9698989699
 H         3.5937471195        0.0198166432       -3.5516046523
 H         4.2196437382        0.6509139113       -4.9308299146
 H         6.8109909196        0.3688572130       -6.3795735067
 H         7.9226223416        1.2272857401       -5.3205842830
 H         6.1970491239        1.6011440322       -5.4022620104
 H         7.5990342562       -2.0631282382       -4.9252146689
 H         8.6455393479       -0.8945547199       -3.8216940086
 H         7.3132339297       -1.9488322106       -3.2260433227
 H         3.0743420444       -0.4983476005       -6.4092132801
 H         2.5389801680       -1.8877245355       -5.3184852837
 H        -0.8940846884        1.8157388067       -4.2251945120
 H        -2.0074996069        1.5204261427       -5.6661380737
 H        -2.4821196820        1.2325417884       -4.0096899703
 H        -1.0036119298        0.1883642133       -7.6909017960
 H         0.8606403259        0.1895256668       -7.8157104160
 H         0.0177733213        1.4410135919       -6.9643191529
 H        -0.7274044312       -2.1731646747       -6.9050788508
 H         0.8747267914       -2.1121322729       -7.0632644603
 H         0.1034339399       -2.5681904220       -5.4311029044
 Na       -2.5797610745       -0.8102085646       -2.1014771254
