155

 C        -6.0660121122        1.3311629310       -3.8886015302
 C        -5.4108862856        0.4153266221       -2.9080710992
 C        -6.3066757531       -0.5934943944       -2.2252124869
 C        -5.6744937530       -1.9250658828       -2.2178244277
 C        -6.6058135302       -3.1706669936       -2.0510280043
 C        -6.1596170701       -0.2144794147       -0.5953307408
 C        -7.7636225190       -0.6404092389       -2.7804181065
 O        -4.2766938734        0.5919684432       -2.4978856834
 O        -4.5146202487       -2.1117181692       -2.3559535522
 C        -5.8308592819       -4.4389446718       -1.8032292486
 C        -5.2670054510       -4.5722002797       -0.3972756913
 C        -4.2842366795       -5.7608574410       -0.0066088181
 C        -2.9845945501       -5.1117085430        0.5338940133
 C        -3.1707315420       -4.1181241557        1.8008359295
 O        -5.6236975037       -3.7586748654        0.4183470118
 O        -1.8690629726       -5.4107501428        0.2990140294
 C        -4.8899594674       -6.5803518257        1.1935186892
 C        -4.0054921051       -6.7621825355       -1.2431879156
 C        -1.9400218012       -3.2843840490        2.0491863105
 C        -1.5726803250       -2.3514036092        0.8653938656
 C        -0.3672242938       -1.3630381800        0.8485116824
 C        -0.9921855493        0.0417963540        0.6920506338
 C        -0.7015712745        1.0100666264        1.8509202297
 C         0.6542161520       -1.4899581869        2.0855111075
 C         0.3502295046       -1.6677246746       -0.5348748702
 O        -2.2465482327       -2.5089730037       -0.1600879313
 O        -1.6661143773        0.3620278162       -0.2812480302
 C        -1.7590586827        2.0622705164        1.9738679691
 C        -3.0067437656        1.6321998707        2.8003120681
 C        -3.3328404183        2.4493952407        4.0613358105
 C        -1.9791910851        2.6634762988        4.9067589440
 C        -2.0430972695        3.7913046094        6.0113683789
 O        -3.6702529321        0.6640460893        2.4369826703
 O        -1.0095743015        1.9538625486        4.6529414893
 C        -4.0582106580        3.7387907045        3.5222594491
 C        -4.2919686345        1.7365235066        5.0461443603
 C        -0.6177916957        4.2059810479        6.4389889684
 C         0.2632869436        4.7734468111        5.2844971845
 C         1.8182628763        4.7466759665        5.5608613910
 C         2.3843136782        3.2469334612        5.0869358653
 C         3.2381687483        3.0571304318        3.7483880713
 C         2.4994632510        5.8091149542        4.7279434263
 C         2.2372875608        4.9941290136        7.0136444679
 O        -0.2695987117        5.1456908149        4.2910326661
 O         2.2416480018        2.3036899340        5.8477541015
 C         3.5342492074        1.6180104830        3.4698694677
 C         4.7966749632        1.4988240690        2.5110522282
 C         5.5206007493        0.1404706001        2.1383314846
 C         5.1901237350       -0.2958324297        0.6938396657
 C         6.0127407987        0.1782392863       -0.4701431343
 O         5.3012096988        2.5452980394        2.1241474773
 O         4.2012330971       -0.9595892992        0.4853957583
 C         7.0846798124        0.2730001679        2.2933341907
 C         5.0042102968       -0.8726744855        3.1270676277
 C         5.3293501734        0.0217413358       -1.7885428145
 C         6.3911830381        0.4836027929       -2.8519288438
 C         6.4494012568       -0.2043414866       -4.2231086878
 C         5.1433621956       -0.8523560940       -4.4990203242
 C         3.8272280907       -0.0329078430       -4.5988170291
 C         6.7525382657        0.7617001878       -5.4396279612
 C         7.6325447098       -1.2873330294       -4.1427375506
 O         7.1245388088        1.4088140776       -2.6682998052
 O         5.1105183795       -2.1166533689       -4.6784141320
 C         2.6187006737       -0.7530158705       -5.2810497873
 C         1.3592615100        0.0252657325       -4.9769109612
 C         0.0768278489       -0.3120947224       -5.8348342661
 C        -1.0339603613       -0.1103141400       -4.7607714887
 C        -1.7801036962        1.2609298356       -4.6743976013
 O         1.3841464929        1.0164717350       -4.3169181800
 O        -1.2099230682       -0.9780060773       -3.9482211743
 C         0.0835825108        0.6701927777       -6.9663852064
 C        -0.0033768840       -1.7868147279       -6.3009071845
 H        -6.2435798945        0.7973470199       -4.8588746242
 H        -7.0563018674        1.6991069735       -3.5968868758
 H        -5.3988904828        2.0750782527       -4.1927160235
 H        -7.2645331747       -2.8166526184       -1.2402093945
 H        -7.3217301499       -3.3543257719       -2.9407406058
 H        -7.1588091743       -0.2280801998       -0.1579812910
 H        -5.7718475611        0.8085364057       -0.5207908993
 H        -5.4085811790       -0.8283876096       -0.0489306441
 H        -7.8120809924       -1.0668673395       -3.8046986800
 H        -8.4476311091       -1.2058192029       -2.1250710162
 H        -8.1146164133        0.3334343204       -2.9400677365
 H        -6.5576675405       -5.2292790206       -1.8064454603
 H        -5.1579484055       -4.6415366661       -2.6088266400
 H        -4.0774036373       -3.4707912408        1.5842905465
 H        -3.3983493745       -4.7910322138        2.6434992499
 H        -5.5759368022       -5.9438276705        1.8313505416
 H        -4.1222224767       -6.9434406795        1.8623101326
 H        -5.4681645370       -7.4078819198        0.8984482883
 H        -4.9111015506       -7.1167537559       -1.7338096953
 H        -3.5626069156       -6.2321659657       -1.9894664255
 H        -3.2881717490       -7.5822287959       -0.9353541639
 H        -1.0082628119       -3.7632787820        2.3225714129
 H        -2.1838473360       -2.5294921971        2.9135634815
 H        -0.6870838164        0.5006107373        2.7853747795
 H         0.3259336790        1.4866927692        1.7122761207
 H         1.3575690320       -2.2583281652        1.9243904947
 H         0.1741811986       -1.7708458506        2.9601342905
 H         1.2034135588       -0.5748287132        2.0329940101
 H         0.9276552490       -2.5422302907       -0.3363703538
 H        -0.2240764278       -1.7587073091       -1.4209259430
 H         1.0685604037       -0.8475751802       -0.7309332845
 H        -1.4179423991        2.9670353963        2.4964636724
 H        -2.0978566128        2.4139755800        0.9472162251
 H        -2.5811239764        4.6554820710        5.6003439050
 H        -2.5960191419        3.5438890848        6.9525808396
 H        -3.2407822417        4.4977450775        3.4415285414
 H        -4.8772798354        4.0086637263        4.1338859955
 H        -4.4907720013        3.7020969044        2.5537406735
 H        -4.7039365241        2.4364000647        5.7086889016
 H        -5.0469849617        1.3243767762        4.4635915012
 H        -3.7985029653        0.9499748617        5.6845953418
 H        -0.0087745947        3.3840741319        6.9306240439
 H        -0.8116388602        4.9898615030        7.1315143556
 H         2.8754381009        3.5108213691        2.8258880540
 H         4.1427010043        3.6754875575        3.8136110224
 H         2.2128595777        5.7747266624        3.6983980667
 H         3.6222954410        5.6277368632        4.6490058229
 H         2.5098242178        6.8324008902        5.1808285650
 H         2.0475896059        4.1052410210        7.5598991299
 H         3.2065340310        5.3873129735        7.2547435976
 H         1.8057613366        5.7507469587        7.5452398136
 H         3.7117242178        1.1824808843        4.4315661773
 H         2.6534715073        1.1576315224        3.0614889755
 H         6.3135188290        1.2129487232       -0.3540642376
 H         7.0659170673       -0.2038962554       -0.3312751616
 H         7.5388333010       -0.6783041346        2.0507405259
 H         7.3745507180        0.6202992171        3.2294842526
 H         7.3592839872        0.8668031680        1.4520918649
 H         3.8653324524       -0.7786115309        3.2280354875
 H         5.2776699840       -1.7981232699        2.6698403169
 H         5.3454609589       -0.7249867985        4.1505182865
 H         4.6346954359        0.8879341487       -1.8370901708
 H         4.9614245638       -0.8655554766       -2.0744416094
 H         3.5193712291        0.2801535157       -3.5341860365
 H         4.0347709890        0.9543481250       -5.0138845247
 H         5.9471420424        0.7888593891       -6.2166494341
 H         7.6044469619        0.4408378692       -6.0170770225
 H         6.8519445640        1.8356030279       -5.2406476328
 H         7.6908075377       -1.7800651482       -5.1054732760
 H         8.5212825994       -0.8428764962       -3.8510219053
 H         7.4090728174       -2.0809949971       -3.4446844009
 H         2.7066131209       -0.6253637565       -6.3362210604
 H         2.4136849489       -1.8122165992       -5.1697485235
 H        -0.9631964732        2.0769459854       -4.5285996565
 H        -2.4498378381        1.3002356007       -5.5052256355
 H        -2.3813533140        1.2250795291       -3.7572153610
 H        -0.7448528978        0.4936893817       -7.5897115162
 H         1.0734078026        0.5901508145       -7.4218884150
 H         0.0429945144        1.7384025090       -6.5394244202
 H        -0.9989639107       -2.0069668621       -6.7531911624
 H         0.6178211635       -1.9827640463       -7.1344598601
 H         0.1188791708       -2.4871582741       -5.5116895730
 Na       -2.5788730943       -0.8148722984       -1.9252361416
