155

 C       -13.0987101663       -5.6507342559        2.4014733776
 C       -12.8306627008       -4.4321183607        3.4315028085
 C       -11.4600818049       -4.2606577314        4.3140115771
 C       -10.3945493245       -3.5363073138        3.5804695593
 C        -9.9714494554       -4.1191425677        2.1880442111
 C       -11.8503963455       -3.5058235470        5.6653890875
 C       -11.0865097264       -5.6844725980        4.7492137135
 O       -13.7392339186       -3.6922163002        3.6980515325
 O        -9.9284214364       -2.4942273131        3.9824221701
 C        -8.8780192908       -3.2833631635        1.4087599169
 C        -7.4935780789       -3.9488544882        1.3556163235
 C        -6.0982080581       -3.2198525680        1.4113430938
 C        -5.7360378955       -2.5115047595        0.1261594099
 C        -4.5134772175       -1.5899526884        0.0787411333
 O        -7.4172671764       -5.1912844634        1.1372740004
 O        -6.4516727056       -2.5654809920       -0.8382458717
 C        -6.1309865468       -2.0628047391        2.5618667303
 C        -5.0679430651       -4.3182586495        1.6267610678
 C        -3.2562979267       -2.4099326119       -0.4500053800
 C        -2.0572322370       -1.5844053916       -0.7182209131
 C        -2.0693570151       -0.7168497446       -2.0659931107
 C        -2.3277143876        0.7647769430       -1.6777306470
 C        -3.4586056596        1.5481815665       -2.2176100221
 C        -0.6424286969       -0.8187065072       -2.7383480852
 C        -3.1468273305       -1.1693006695       -3.0825648896
 O        -1.0230545711       -1.6441316444       -0.0442032308
 O        -1.4036218342        1.3262100243       -1.0848765986
 C        -3.5215416518        3.0035145796       -1.5196518871
 C        -4.2253939791        3.0510967725       -0.1706470997
 C        -4.0866664663        4.2856102300        0.7150170071
 C        -2.8872485726        3.9140652745        1.8280053383
 C        -3.2630133150        2.8859544259        2.9836853548
 O        -4.8093849218        2.0565536747        0.3421497705
 O        -1.7866135562        4.4101509156        1.7762826562
 C        -3.5753771854        5.4754535860       -0.0685750183
 C        -5.3789771341        4.5710282036        1.4770830618
 C        -2.1652085739        2.1472372200        3.8216893064
 C        -1.2008315691        1.3213149433        2.9282517887
 C         0.0115073476        0.6264924155        3.6945975535
 C         1.2076891227        1.2298730356        2.8869195555
 C         1.5593976291        2.7552094613        3.2248083694
 C         0.3246500550        0.9157276120        5.2594316641
 C        -0.0512108329       -0.8712467833        3.3784214671
 O        -1.2609640674        1.3796450329        1.7636819715
 O         1.8134430455        0.5850421994        2.0802888316
 C         2.4407014780        3.5177525807        2.1465232740
 C         2.0177728396        3.1597110621        0.7878242269
 C         3.1593799340        3.2175947167       -0.4673071866
 C         3.3957725385        1.7945800820       -0.9817805208
 C         4.6047044545        1.6182703602       -1.8541552543
 O         0.8466574583        2.8786800431        0.6058733903
 O         2.6777353975        0.8310761557       -0.6930420879
 C         2.3530806646        3.9014507041       -1.6432894331
 C         4.4369612556        3.9610355139       -0.2570693742
 C         4.8830162071        0.1675235218       -2.2136593564
 C         6.4155193351       -0.1452697489       -2.1174698392
 C         6.9082965410       -1.5945266869       -2.4916119837
 C         7.8960079207       -1.4688726857       -3.7487671816
 C         9.2265986546       -0.7824614052       -3.5407567289
 C         7.6991133089       -1.9369162052       -1.1521522574
 C         5.7297427879       -2.5834142813       -2.7453359686
 O         7.2026843354        0.7242047577       -1.8715835667
 O         7.5074095289       -1.9098956282       -4.7689833767
 C         9.8880262072       -0.3743406402       -4.8943774734
 C        10.3761500727        1.0465351750       -4.8126913764
 C        11.6369804100        1.4806185548       -5.7238875950
 C        12.9606806300        1.1858806479       -4.8907501151
 C        13.3686293599        2.0964383650       -3.6897233405
 O         9.8031210219        1.8755859094       -4.1120092867
 O        13.5885130972        0.2066042554       -5.1702115368
 C        11.7471128322        0.7125876137       -7.0829329062
 C        11.4917046408        3.0217833068       -5.9874000867
 H       -13.5027996798       -6.4803580470        2.9696744432
 H       -13.8649542002       -5.3316291305        1.7090791208
 H       -12.2835483312       -6.0987534418        1.8605350328
 H        -9.6066386048       -5.2223848656        2.3020477835
 H       -10.8668906286       -3.9776612346        1.6141940507
 H       -11.2408459977       -3.9553310686        6.4815880845
 H       -12.8855025484       -3.7771718760        5.9406269716
 H       -11.7814162940       -2.4556800168        5.6513304515
 H       -11.9369740161       -6.4153914656        4.7131175327
 H       -10.3696303440       -6.1996711447        4.0606671102
 H       -10.8451461484       -5.9415407881        5.8172317122
 H        -9.1394774485       -3.1326345591        0.3978812037
 H        -8.8395554075       -2.3045826539        1.8464231633
 H        -4.7200898625       -0.7381073316       -0.6610486586
 H        -4.2573347299       -1.2058609459        1.1227169685
 H        -5.0611555380       -1.7856066032        2.7000397562
 H        -6.5828676731       -2.3453890124        3.4888763637
 H        -6.5953838303       -1.2087640270        1.9718107756
 H        -5.3928056141       -4.9717213463        2.4070537060
 H        -4.8470440606       -5.0224233228        0.8277693802
 H        -4.1105347634       -3.9936511574        1.9946878120
 H        -3.5610162356       -2.9848252256       -1.3592086477
 H        -2.9974602700       -3.0787187378        0.3936200863
 H        -3.2340975017        1.6076737998       -3.2685944215
 H        -4.3564878546        1.0191531625       -2.0586361873
 H         0.0836437425       -0.4191117375       -2.1288205229
 H        -0.4337366640       -0.0571939056       -3.5796973700
 H        -0.3471815770       -1.8109950118       -3.0135311788
 H        -2.9231073855       -2.0078893106       -3.6788383568
 H        -4.1383081610       -1.2145023556       -2.6667207292
 H        -3.1435657926       -0.4783253984       -3.9040185767
 H        -2.5499089722        3.3055583147       -1.4644378320
 H        -4.0420011817        3.8248366317       -2.0194536097
 H        -3.9590522214        3.4439996490        3.6236035600
 H        -3.9169662471        2.1186415507        2.5650194736
 H        -2.5612811806        5.3173229733       -0.3634879739
 H        -3.4093331950        6.2892395623        0.6298357832
 H        -4.1941060906        5.7530533403       -0.8933570868
 H        -6.1005187984        5.0903469185        0.8996642366
 H        -5.7705320422        3.5755461479        1.7420383394
 H        -5.2008871996        5.0945639651        2.3710031667
 H        -2.5943488132        1.4492207046        4.5507383345
 H        -1.4963814017        2.7362288701        4.5172182788
 H         0.6201452167        3.2869065901        3.2931973829
 H         2.0496436745        2.9653028253        4.2175991876
 H         0.4173035765        2.0233517291        5.4195377741
 H         1.3169113687        0.3251014030        5.5100834064
 H        -0.5045449912        0.5690876548        5.8611358677
 H         0.8481538967       -1.3893780551        3.6871512474
 H        -0.7750894348       -1.3141036107        4.0491762120
 H        -0.3647926954       -1.0091033035        2.3009426293
 H         2.2852842915        4.5841943760        2.3325955192
 H         3.5224439090        3.4451116602        2.2345908552
 H         4.5943272543        2.2513081929       -2.6738397485
 H         5.4931918647        2.0705371565       -1.4210639873
 H         2.2280344574        4.9974275013       -1.2884121928
 H         1.4113795112        3.4204108196       -1.8827989132
 H         2.9670334594        3.8741542111       -2.6067124859
 H         4.9998979088        4.2779141969       -1.1818242545
 H         4.3827889889        4.9346896101        0.3250691400
 H         5.0669857198        3.3590756216        0.3499703220
 H         4.6420126872        0.0450966631       -3.2558841081
 H         4.3666100089       -0.5342117293       -1.6354757178
 H         9.0005228696        0.0416608921       -2.9022534800
 H         9.8211818986       -1.5686381754       -3.1092872836
 H         8.5892318576       -1.3424533180       -1.0209634684
 H         8.0024846586       -3.0168652822       -1.1765680940
 H         7.1874698396       -1.6621124401       -0.2098036954
 H         4.8790040708       -2.0705466651       -3.2437934184
 H         6.0639159078       -3.4241732388       -3.3898681051
 H         5.5087805517       -3.0294659061       -1.8108941340
 H        10.7693107612       -1.0080069524       -5.1944703278
 H         9.3162545341       -0.4431051761       -5.8430687565
 H        12.9506000704        3.1324379741       -3.7268926699
 H        13.1262105448        1.6694066004       -2.6735271656
 H        14.5270648337        2.1787344926       -3.7530844046
 H        10.8132802283        0.6830506306       -7.6184776447
 H        12.2579687778       -0.2396985741       -6.7913956057
 H        12.4867384425        1.2346951068       -7.7212392635
 H        12.4500632509        3.3075738066       -6.5549526082
 H        10.5860752623        3.2797722755       -6.5949534521
 H        11.4358729537        3.6790172797       -5.1179231530
 Na        0.3335902582        0.4498224677        0.1408311243
