155

 C        -6.5176756119       -1.0997462882       -4.9673937357
 C        -5.5761125585       -1.4212070573       -3.8510673964
 C        -5.8924501346       -2.6201978689       -2.9103069848
 C        -4.8679768192       -3.7593161372       -3.1477528792
 C        -5.2506212544       -5.2703706755       -3.0353725040
 C        -5.7778170337       -2.2099076718       -1.3178860075
 C        -7.3634232453       -3.0967495390       -3.0239635764
 O        -4.5639601687       -0.7751529649       -3.6580852987
 O        -3.7848626220       -3.4279403543       -3.5486916897
 C        -4.0898628612       -6.0701668717       -2.4460753321
 C        -3.8515478821       -5.6078936666       -1.0048452771
 C        -2.7708252534       -6.3888734174       -0.1268946495
 C        -1.7451594855       -5.1914832986        0.3068771498
 C        -2.3482412567       -4.0985952580        1.3102646905
 O        -4.5503380347       -4.7164788042       -0.5627888219
 O        -0.5848196651       -5.2396464644       -0.0632834176
 C        -3.5265361301       -6.8094158174        1.1342483880
 C        -2.0669308037       -7.4637662442       -0.9274440568
 C        -1.3935520543       -2.8876120837        1.3060641177
 C        -1.4114263229       -2.1255884081       -0.0198156231
 C        -0.2911418849       -0.9845545760       -0.3654014398
 C        -0.8733894760        0.3186400961       -0.8495651991
 C        -0.3994542273        1.7387786330       -0.5129059099
 C         0.6276123011       -0.7880334242        0.8702220396
 C         0.6998935285       -1.6375067526       -1.4675518207
 O        -2.2179580418       -2.4213471504       -0.8873510854
 O        -1.7626620307        0.3429068495       -1.6498088287
 C        -1.2609228394        2.5502975983        0.3760941124
 C        -1.9313185829        1.6770766941        1.5335141897
 C        -2.8135056206        2.5628041382        2.5157582909
 C        -1.8675744198        3.0010935580        3.7731353436
 C        -2.4103215398        3.9803041318        4.8526985918
 O        -1.9124666892        0.4454164800        1.6369861261
 O        -0.7333839968        2.5913936691        3.7479597485
 C        -3.3726872333        3.8564766597        1.8352986497
 C        -3.9178045377        1.6541548943        3.1539154075
 C        -1.3995224356        4.2753731647        6.0195737541
 C         0.0217305143        4.6611805700        5.5621167653
 C         1.3521385191        4.1633922237        6.3033754822
 C         2.0598667280        2.7886659233        5.6112463661
 C         2.3948297127        2.9399221109        4.0305459809
 C         2.4574312639        5.2462910178        6.0163477674
 C         1.0377030895        3.7848799410        7.7510161221
 O         0.1371757032        5.3155414111        4.5644023528
 O         2.0974961856        1.7609683886        6.2707539871
 C         3.1765910096        1.6626872114        3.6274281531
 C         4.6198228962        1.7339643797        3.8513573987
 C         5.5601272629        0.3521509075        4.0416949992
 C         5.2792878013       -0.4096300166        2.7287862315
 C         6.0526883826        0.1133291698        1.4938181501
 O         5.1968803747        2.7792827495        3.7406347893
 O         4.4795622769       -1.3346614071        2.6762289148
 C         7.0088146101        0.7363415700        4.3602309221
 C         4.9696659709       -0.4654959411        5.2376546699
 C         5.4630372168       -0.6091379433        0.1188569571
 C         4.3654569389        0.3337915820       -0.5303395967
 C         4.6308166872        1.2997346173       -1.7253236982
 C         3.4679088810        0.8988050629       -2.8781702632
 C         3.2010154456        2.0846084148       -3.8899695112
 C         4.3978174998        2.7829232590       -1.1462868036
 C         6.0533329640        1.2679270256       -2.3373253800
 O         3.3103500046        0.3090617862       -0.0389190996
 O         3.0760766181       -0.2051506937       -3.0309037448
 C         2.5425134941        1.5042166338       -5.1733538347
 C         1.0286276419        1.7157869815       -5.1011391204
 C        -0.0197433411        1.1143838337       -6.1933666201
 C        -1.2045330252        0.6390036268       -5.2387301187
 C        -2.4599683699        1.5225860730       -5.3482763690
 O         0.4855332075        2.3960168261       -4.2573085597
 O        -1.0913741604       -0.4081246786       -4.5794986478
 C        -0.4268059485        2.1820448780       -7.2213165069
 C         0.3998870427       -0.1663889186       -7.0130555140
 H        -6.2088716931       -0.1840923858       -5.4787976388
 H        -6.3476324392       -1.9346148622       -5.6890562440
 H        -7.5267191292       -1.0038451185       -4.6782529006
 H        -6.1298301854       -5.3459047152       -2.3268614700
 H        -5.4355528953       -5.6904010248       -4.1006044790
 H        -4.7450791142       -1.9501726545       -1.0870411151
 H        -6.0723844439       -3.0327819372       -0.7421521314
 H        -6.4885100951       -1.3990634954       -1.1619093005
 H        -7.4855475959       -4.0223846912       -2.5148500066
 H        -8.1469777055       -2.4949533848       -2.6760865869
 H        -7.7002162729       -3.2825798329       -4.0419335604
 H        -4.3180914151       -7.1473374393       -2.3461223523
 H        -3.1597333758       -5.8492636770       -3.0119325894
 H        -3.3575100672       -3.9001283427        1.1078216486
 H        -2.4685637594       -4.5538762944        2.2997701839
 H        -4.0523198163       -6.0045356369        1.4941226401
 H        -2.7612391664       -7.1990171241        1.7489232647
 H        -4.2586494813       -7.5914707252        0.9580752861
 H        -2.7126363803       -8.3690207819       -1.2322064757
 H        -1.5077996291       -7.1670637472       -1.8520620074
 H        -1.2890303995       -7.9750907279       -0.1563816131
 H        -0.4145542256       -3.3851921364        1.4688070753
 H        -1.4746701235       -2.3688440492        2.1975004896
 H         0.6912359557        1.7622265268       -0.1307779248
 H        -0.3491642205        2.2677631498       -1.4937658188
 H        -0.0977711985       -0.4311234092        1.6053297531
 H         1.3252624244       -0.0292845475        0.5935847766
 H         1.1722447681       -1.7099232377        1.1903002695
 H         0.9882527077       -2.5782861248       -0.9503865506
 H         0.2495844921       -1.9718464643       -2.3951515589
 H         1.5235677752       -0.9239196095       -1.6178273599
 H        -0.6523787189        3.4989854261        0.6043813680
 H        -2.0869154674        2.9704749133       -0.1475109447
 H        -2.6105216106        4.9860463916        4.3910043820
 H        -3.3622750028        3.5906338917        5.2114432127
 H        -2.4838201475        4.4888352059        1.6106245178
 H        -3.9887329400        4.2908208909        2.5860694341
 H        -3.9381682663        3.6027141375        1.0023551425
 H        -4.3363390567        2.1877673469        3.9459116238
 H        -4.7531549388        1.2786582111        2.5734248194
 H        -3.3338070932        0.8658664827        3.4879915210
 H        -1.5185603644        3.3768773038        6.6575868074
 H        -1.8821261120        5.0446687387        6.6135484115
 H         1.4468704197        2.8192568102        3.5236895656
 H         2.9957663240        3.8414276247        3.8950856735
 H         2.0378497928        6.1713743007        5.6275276570
 H         3.1964301098        4.9617221885        5.3537168883
 H         3.0520717347        5.5547974211        6.9251812012
 H         0.1065701001        3.2233250519        7.7737908414
 H         1.8902551474        3.1672126112        8.1080173112
 H         0.8697063718        4.6387064634        8.3693923679
 H         2.6355190557        0.8716799189        4.1357855553
 H         2.9586546903        1.4072928295        2.5688859307
 H         6.0831725055        1.1856204161        1.4645410830
 H         7.1389764697       -0.1618368371        1.4992714471
 H         7.6266660532        0.3522829077        3.5100028023
 H         7.3274370894        0.3246337607        5.2911592516
 H         7.0868720329        1.8228673919        4.3668766865
 H         3.9159749904       -0.6052067187        5.1075362091
 H         5.4572537026       -1.5048512165        5.3705261209
 H         5.1645367085        0.1424333308        6.1752237497
 H         5.0542752097       -1.5856173074        0.4811145340
 H         6.3051915987       -0.7611480949       -0.5488073175
 H         2.4709891237        2.6747639300       -3.3006351182
 H         4.0263707859        2.7189429700       -4.1008110241
 H         3.3135531792        2.9517143354       -0.9101219675
 H         4.6683403274        3.5270594002       -1.8520500294
 H         5.1004091086        2.8592524756       -0.2205599843
 H         6.1403456174        1.9229780118       -3.2972111685
 H         6.8250163512        1.6074805535       -1.6202558406
 H         6.5006218977        0.3235414689       -2.6843426603
 H         2.8038560029        2.0009110685       -6.1180387554
 H         2.7030052394        0.4315785839       -5.2422801437
 H        -2.8150482763        1.2683617432       -6.3503430232
 H        -3.2608318755        1.3043056818       -4.6023801260
 H        -2.1010522652        2.5653221048       -5.1882371934
 H        -1.2980164281        2.0415677879       -7.8269924431
 H         0.4670061554        2.5363169347       -7.7452028773
 H        -0.5985575728        3.1389845341       -6.6750993782
 H        -0.3512186075       -0.8853503382       -7.4066909607
 H         1.0496236759        0.2162767053       -7.8082992162
 H         1.0342443152       -0.8201710349       -6.4258499280
 Na       -2.4498859976       -1.3554754105       -3.0738916967
