155

 C        -6.4951599194       -1.4487069070       -5.3276479614
 C        -5.7000639465       -1.5473356208       -4.0064614583
 C        -6.0011804588       -2.6154089687       -2.9202339160
 C        -4.8251894339       -3.7473711522       -3.1315427919
 C        -5.2301421856       -5.2768633621       -3.2232611090
 C        -5.7436437607       -2.0971245181       -1.4867485334
 C        -7.3644048865       -3.2007691898       -3.2218838777
 O        -4.6995068817       -0.8826699113       -3.7937422976
 O        -3.6453346177       -3.4991729760       -3.0820743098
 C        -4.0450793135       -6.1240248319       -2.5523261433
 C        -3.8669504248       -5.6707411288       -1.0395791457
 C        -2.6885606642       -6.3525317579       -0.1828269553
 C        -1.7113027167       -5.0614359613        0.0984317135
 C        -2.3009404759       -4.0205292580        1.1545448912
 O        -4.6274858386       -4.8811794066       -0.5279684348
 O        -0.6799651734       -5.0860886881       -0.4834962764
 C        -3.2545578274       -6.9046202217        1.0953792209
 C        -1.9925390082       -7.5162517008       -0.9329095096
 C        -1.4880186405       -2.7227741473        1.1974209650
 C        -1.2718709171       -2.0971501940       -0.1679633157
 C        -0.2272550252       -1.0241855336       -0.4191485014
 C        -0.9457548643        0.2452858891       -0.8354312162
 C        -0.3216925430        1.6063144809       -0.4407500778
 C         0.5078221850       -0.7731463989        0.9841229506
 C         0.7048092903       -1.5769718836       -1.5610203966
 O        -1.9993449061       -2.4431691171       -1.0691634080
 O        -1.8000498649        0.2785767293       -1.7350935090
 C        -1.1861728646        2.5546567357        0.4324033996
 C        -1.9861845466        1.7611871166        1.4963999716
 C        -2.7840773570        2.5485855000        2.6044624165
 C        -1.7711316676        2.9641219487        3.7780763626
 C        -2.2738487406        4.0415124564        4.7675261028
 O        -2.1047745489        0.5293659924        1.5408803314
 O        -0.6174305298        2.5300625928        3.9671234757
 C        -3.5747338025        3.8912849120        2.0269858602
 C        -3.9374400952        1.6368954372        3.2729568160
 C        -1.2554355098        4.2334543632        5.9237994276
 C         0.1114901588        4.7110668311        5.4284281015
 C         1.2910560415        4.1742560600        6.2614728175
 C         2.0754393190        2.8653513722        5.6102699639
 C         2.4313642737        2.9992908606        4.0563127011
 C         2.2231714782        5.2934064376        6.5853278778
 C         0.8883532313        3.6655929815        7.7214542494
 O         0.3106164953        5.3603971925        4.4072427302
 O         2.3355895984        1.9406026548        6.3061757537
 C         3.1611978183        1.7259945320        3.6423809333
 C         4.6667526730        1.7510949116        3.9405598584
 C         5.4903466273        0.3418413136        4.1037713298
 C         5.2979327520       -0.4137622171        2.7907912778
 C         6.1632797825       -0.0194829183        1.4746302563
 O         5.2175929338        2.8364864718        3.8735178882
 O         4.5238629897       -1.3192176741        2.6812098780
 C         6.9428722328        0.6921906814        4.3442705005
 C         4.8226343838       -0.4068805782        5.2750695387
 C         5.6074470111       -0.4302731088        0.0983930560
 C         4.4098909810        0.3466771633       -0.4337733841
 C         4.5353965609        1.4225897149       -1.6940839688
 C         3.5663037486        0.9659891497       -2.8349879170
 C         3.2593152716        2.1027688047       -3.9885941500
 C         3.8836304354        2.6830087759       -1.0713785278
 C         6.0255987219        1.5577204251       -2.1706302623
 O         3.3219855655        0.2981941989        0.1880101636
 O         2.9364852255       -0.0893647860       -2.8325517758
 C         2.5900551480        1.6074251291       -5.2412212528
 C         0.9582394683        1.7501327458       -5.0974334773
 C         0.0487424764        1.0684568235       -6.1481245128
 C        -1.1679941152        0.5367859396       -5.2490353046
 C        -2.5435858635        1.2345501219       -5.0489200361
 O         0.4554850846        2.5137084815       -4.3017017228
 O        -1.0083945392       -0.5192150360       -4.7218613252
 C        -0.3605304583        2.1653776001       -7.1234438810
 C         0.6362384026       -0.1662455341       -6.9777926067
 H        -5.7515784053       -1.5142797080       -6.1189474587
 H        -7.3520588914       -2.1049603957       -5.5284595443
 H        -6.8171526000       -0.3763488568       -5.3579627371
 H        -6.1543051840       -5.4463765240       -2.7087334521
 H        -5.2319278858       -5.5294465683       -4.2266544008
 H        -4.7017091856       -2.0580117942       -1.3024936117
 H        -6.1704222643       -2.8584657786       -0.7833324027
 H        -6.1988692689       -1.1230808871       -1.3553993360
 H        -7.9281325547       -3.6344765553       -2.4187311570
 H        -8.0427184354       -2.3835388239       -3.4560510234
 H        -7.4584600374       -3.8968766878       -4.0067873462
 H        -4.3093609898       -7.1833645907       -2.4589052155
 H        -3.1555148627       -5.9218724142       -3.1459317059
 H        -3.3835749932       -3.7810297587        0.9012007040
 H        -2.4778223965       -4.5778129912        2.0671392743
 H        -4.2212672828       -6.4950621838        1.4212856521
 H        -2.4204074973       -6.9078346353        1.7826759697
 H        -3.4191983789       -8.0049726240        0.9398578795
 H        -2.6399663985       -8.3104910255       -1.3019659130
 H        -1.4488683682       -7.2117248859       -1.7883888575
 H        -1.3457550760       -7.9608769094       -0.2409910112
 H        -0.5969282347       -2.9369052541        1.7909750507
 H        -2.0130410603       -2.0267219785        1.9712723215
 H         0.6669364342        1.4594510662       -0.0882653512
 H        -0.1742007693        2.0856476956       -1.4293270967
 H        -0.1919232319       -0.3439304761        1.7051501302
 H         1.4103130325       -0.1319048120        0.8955822126
 H         0.8054617449       -1.7548386209        1.1632164287
 H         1.1873994342       -2.5365564514       -1.3798700743
 H        -0.0291131028       -1.6704815448       -2.4038740416
 H         1.3243024763       -0.7491719143       -1.8545243742
 H        -0.5857655195        3.3265927654        0.8424777744
 H        -1.9900942291        3.1418021753       -0.1449677587
 H        -2.3658290381        4.9570511218        4.2681329078
 H        -3.2882591234        3.7709259065        5.0700515763
 H        -2.8538988404        4.5423643160        1.6289789663
 H        -4.0909975578        4.3502096993        2.8825119123
 H        -4.3313908087        3.5992465753        1.2297800701
 H        -4.0519158982        1.9244121667        4.3767291400
 H        -4.9023131146        1.9149528149        2.7781611606
 H        -3.7093506188        0.5667636636        3.0979690673
 H        -1.2150467583        3.2238285897        6.2999559841
 H        -1.6939786864        4.8074195943        6.7487655074
 H         1.4629120568        2.9344875266        3.5566937292
 H         3.0106810646        3.8802453982        3.9078738150
 H         2.5326947164        5.9054231905        5.7016471577
 H         3.2455983231        4.8951293507        6.9609567912
 H         1.8023249893        5.9336156151        7.2852884664
 H         0.5207637844        2.6272459700        7.7366863444
 H         1.7593840896        3.8033367083        8.3257306326
 H         0.1649436022        4.4019029544        8.1788283195
 H         2.6278887563        0.9520744156        4.2573486840
 H         2.9558894422        1.3901555328        2.6146075302
 H         6.3349359313        1.0900746507        1.5370850982
 H         7.1433437866       -0.4355042122        1.4805529384
 H         7.6851688073        0.2018065317        3.7741803998
 H         7.1556703313        0.5013287019        5.4001470973
 H         6.9880145681        1.7751569169        4.2283477565
 H         3.7975322841       -0.6744163557        5.1425583638
 H         5.3714977641       -1.2306046924        5.5316585636
 H         4.8348873226        0.2908463411        6.0666750001
 H         5.2554161286       -1.4626144314        0.2756937806
 H         6.3737084726       -0.5614805648       -0.6828814662
 H         2.6841085412        2.9816975860       -3.6152316968
 H         4.3312283256        2.4434990347       -4.2108065717
 H         2.8362614944        2.5100013207       -0.8876725990
 H         3.9559938490        3.5459463813       -1.7590843205
 H         4.2884684545        2.8475743915       -0.1383850475
 H         6.1692192193        2.0527525109       -3.0765563075
 H         6.7207516355        1.9478673074       -1.4746488737
 H         6.4076588665        0.5605450243       -2.3365862344
 H         2.8234256118        2.1190321233       -6.1356678923
 H         2.7348650113        0.4990202037       -5.4523272486
 H        -2.9673356677        1.3967609966       -6.0723936622
 H        -3.1333403735        0.4860257120       -4.5973128910
 H        -2.5141182578        2.0490146619       -4.3736960099
 H        -1.2702273016        1.8643676905       -7.6651877629
 H         0.4069901052        2.5395015054       -7.7518961182
 H        -0.6478513518        3.0657661190       -6.5738406677
 H        -0.1935900076       -0.5971230929       -7.5062880168
 H         1.4411811789        0.0408429631       -7.7092213374
 H         0.8815734957       -1.0343791513       -6.3318236053
 Na       -2.6716703592       -1.3948436151       -2.9850799110
