155

 C        -5.7057277322       -2.1837036573       -6.6524603938
 C        -5.3845006995       -2.1503065820       -5.2002216200
 C        -5.7032006274       -3.4188854502       -4.3447240365
 C        -4.3693908671       -4.2383951236       -4.0958229979
 C        -4.5612830711       -5.7227002026       -3.8738699872
 C        -6.3624366976       -2.8500475125       -3.0726036726
 C        -6.6765658044       -4.3195873754       -5.1485978978
 O        -4.8128056699       -1.2166211512       -4.6644841238
 O        -3.2845814979       -3.7484819707       -4.0874017351
 C        -3.3785615114       -6.3521471305       -3.0846676667
 C        -3.6845821819       -6.3618079138       -1.5724092199
 C        -2.5503059984       -6.5314671211       -0.4932521018
 C        -2.2028917138       -5.1178084062       -0.0459296648
 C        -3.3035076364       -4.3542685577        0.6472310636
 O        -4.7797476865       -6.0530014570       -1.2161911043
 O        -1.0659345293       -4.6820135649       -0.2804627936
 C        -3.0829579877       -7.5337623034        0.5717134069
 C        -1.2440918324       -7.1881055700       -1.1709622780
 C        -2.7684802055       -2.9590348643        0.8952516976
 C        -2.1514538574       -2.3005374286       -0.4082930882
 C        -0.8797149685       -1.3515340849       -0.3479287020
 C        -1.2984846567        0.0466068473       -0.7348649073
 C        -0.6295806091        1.2092542477        0.1193970579
 C        -0.0393929730       -1.4263968556        1.0099632680
 C        -0.0049565886       -2.0421573525       -1.4583999361
 O        -2.7085158813       -2.4165638280       -1.4953691083
 O        -2.0665921368        0.2886367258       -1.6240523918
 C        -1.6053845029        2.1224135869        0.8591806146
 C        -2.4681286109        1.3843033195        1.9420413132
 C        -2.9503364570        2.2660527552        3.1300321866
 C        -1.8945400131        2.5308928146        4.1987917078
 C        -2.2388260408        3.1271361156        5.5519375423
 O        -2.7004167843        0.1976748996        1.9212252283
 O        -0.7534919172        2.3584746336        3.9806554255
 C        -3.4887834627        3.5333635497        2.6499986283
 C        -4.0867064679        1.4218212179        3.8006340374
 C        -1.0240977286        3.1415179523        6.5156600898
 C        -0.1300133260        4.4842442126        6.2516459841
 C         1.3873540707        4.5553439115        6.7588000778
 C         2.2528423638        3.3438971054        6.3080126282
 C         2.7838892042        3.3140304834        4.8040535126
 C         2.0334437836        5.8435512075        6.1501568372
 C         1.2929047879        4.6399051464        8.3259848761
 O        -0.5595244188        5.4564658861        5.6584198381
 O         2.6040375734        2.4792910847        7.0769360779
 C         3.2501133692        1.8932231918        4.4776750601
 C         4.8063548381        1.6110022246        4.5749090604
 C         5.3340568040        0.4550301987        3.7540651869
 C         5.0835777320        0.6243994477        2.2160369935
 C         6.0562609904        1.4287605577        1.3714690996
 O         5.4029851422        2.3836759773        5.2430038314
 O         4.1204858245        0.0374018668        1.6964021302
 C         6.8293663853        0.2619741867        4.0067423789
 C         4.6465714858       -0.8151198341        4.2518462151
 C         5.5470581765        1.5697952818       -0.0441519846
 C         4.1333851457        2.3509086489       -0.2137534594
 C         4.0668163662        3.3244275241       -1.5404600432
 C         4.0769447907        2.4182915956       -2.9007376435
 C         3.5116175369        2.9053928784       -4.2360647731
 C         2.8546967748        4.2202490841       -1.5759023989
 C         5.3887344271        4.2265786989       -1.3929722084
 O         3.1377761954        2.2312647628        0.4354044920
 O         4.5445295624        1.2710891363       -2.7984400832
 C         2.8152406488        1.9162813533       -5.1043054160
 C         1.5810518660        1.0685767415       -4.5603115811
 C         0.7368608633        0.1131066887       -5.4473374227
 C        -0.5723400077        0.0032273924       -4.7485261677
 C        -1.3168831042        1.2996112807       -4.3302689746
 O         1.3987720620        1.0312497618       -3.3478206403
 O        -1.1446691228       -1.1027736177       -4.6628003496
 C         0.4198391060        0.7853303524       -6.8369478925
 C         1.4790678946       -1.2681704977       -5.4681651739
 H        -5.7143592160       -3.2178279319       -7.0661217617
 H        -6.6018561739       -1.5469746489       -6.7070003723
 H        -4.9323607182       -1.6555802349       -7.1134392412
 H        -5.4381485203       -5.8716068581       -3.1581740441
 H        -4.7284872188       -6.4118861848       -4.7856467495
 H        -5.6592999913       -2.1057552981       -2.7087239416
 H        -6.5156634032       -3.5605862057       -2.2634469302
 H        -7.2673417975       -2.2835014880       -3.2215432563
 H        -6.8911775077       -5.2456160996       -4.5566548208
 H        -7.6066414552       -3.6933564493       -5.1905036872
 H        -6.2837608737       -4.6342020974       -6.1765080685
 H        -3.3470665512       -7.3769077192       -3.5018916794
 H        -2.4715841379       -5.7904364122       -3.4466546480
 H        -4.2292127166       -4.3134124110        0.1296035021
 H        -3.4700708358       -4.9884872405        1.4960331894
 H        -4.0985061014       -7.2734199863        0.9571642710
 H        -2.5244312477       -7.6221643728        1.5457167784
 H        -3.1504987597       -8.5239708899        0.1942613146
 H        -1.4760310717       -8.2971502838       -1.4967650382
 H        -0.7707609250       -6.5307274304       -1.8824363105
 H        -0.5055992707       -7.2918154471       -0.2950416663
 H        -2.1181673056       -3.0262123855        1.7605962939
 H        -3.6566208347       -2.3228476075        1.2269776165
 H         0.2652050210        0.8462093348        0.7387186087
 H        -0.2414856400        1.8168292896       -0.7463610803
 H        -0.4191042571       -0.8277817471        1.8057747821
 H         0.9956584695       -1.1272735379        0.9890725704
 H         0.1288378187       -2.4207756567        1.2306923453
 H         0.2124569401       -3.0079886148       -0.9349531755
 H        -0.3508946666       -1.9776406106       -2.4695528650
 H         0.9848878618       -1.5905706208       -1.4904502345
 H        -1.1061865486        2.9432575502        1.3486259540
 H        -2.2708943183        2.6032314592        0.0405473991
 H        -2.6611969366        4.1858144390        5.3273347040
 H        -3.0222269004        2.5013153119        5.9701390683
 H        -2.8242677311        4.3283139754        2.3137075989
 H        -4.1052361281        4.1118628014        3.3816318288
 H        -4.2014461959        3.5298640924        1.7834653191
 H        -4.6940169430        1.9752467474        4.4548418030
 H        -4.6522587999        0.9030609610        3.0044316905
 H        -3.6720087615        0.7128125676        4.5182145348
 H        -0.3176879055        2.3325292443        6.5849229612
 H        -1.4443066822        3.3543869965        7.5520835106
 H         1.9015398353        3.6494989084        4.2541610112
 H         3.5799224192        4.0703286265        4.6985668271
 H         2.2840872138        5.5818817055        5.1542051336
 H         2.8752481489        6.1477048229        6.6449911106
 H         1.2482791153        6.7115561608        6.2465358945
 H         0.4327248002        4.0637257905        8.7659033567
 H         2.1049157237        4.2124896293        8.8619864086
 H         1.2756013519        5.7215957639        8.5705600855
 H         2.6557775538        1.2901247740        5.1549363286
 H         3.0764307501        1.7230452958        3.4036360612
 H         6.3158725948        2.4209385081        1.7095197684
 H         7.1033447233        0.9715804972        1.2584531610
 H         7.1340938763       -0.7897789806        3.8842320802
 H         7.0518609360        0.4794476648        4.9831449213
 H         7.4816491798        0.9281678361        3.3770633251
 H         3.5214735827       -0.6875150887        4.2573936164
 H         4.9828565478       -1.7244975431        3.6156848807
 H         5.0027961163       -0.9163978612        5.2774046715
 H         5.3198401789        0.6169940940       -0.4516550644
 H         6.2736360725        2.1653006314       -0.6172955801
 H         2.9093055606        3.7668183894       -4.1467567942
 H         4.4049306852        3.3042711163       -4.7893318273
 H         1.9695227916        3.6815440504       -1.9777615483
 H         3.0316038019        5.0101043619       -2.2437066186
 H         2.5134111573        4.6719474522       -0.6649887453
 H         5.3756222217        5.0159255374       -2.1980120106
 H         5.2963866215        4.6090906186       -0.4134901450
 H         6.1962098300        3.5603778859       -1.5408315010
 H         2.4421150601        2.3653759974       -6.1554573198
 H         3.4681616422        1.0849311856       -5.3900345239
 H        -1.5700883447        1.2627732125       -3.2413920350
 H        -0.6894987277        2.1704244934       -4.5001721476
 H        -2.1906791384        1.2490254512       -4.9346584484
 H        -0.2304530915        0.2304862027       -7.4490779448
 H         1.3078780385        0.7196722236       -7.3461461680
 H         0.0548227880        1.8340431499       -6.6360249879
 H         0.8172389825       -2.0835750736       -5.3979381159
 H         1.8949251772       -1.4092030331       -6.5161455030
 H         2.3040551706       -1.3245277712       -4.7356374735
 Na       -2.8272656350       -1.3784705090       -3.3948303207
