155

 C        -5.9082812483       -1.8055327456       -6.7435536030
 C        -5.1926026605       -2.1747327502       -5.3424953498
 C        -5.4558557243       -3.5426264006       -4.7212275965
 C        -4.1718493920       -4.3145907763       -4.4488461023
 C        -4.0647592041       -5.8637380530       -4.3888579638
 C        -5.9885444927       -3.2109089914       -3.2383503271
 C        -6.4818835085       -4.2979252578       -5.5035968909
 O        -4.5839287242       -1.2733081820       -4.7853625642
 O        -3.1551622668       -3.7432501501       -4.1022149186
 C        -3.1086169006       -6.2964254299       -3.1836365875
 C        -3.7122494128       -6.2233660076       -1.8383863039
 C        -2.6503573365       -6.4399364907       -0.6274445101
 C        -2.3179504822       -5.0540710726        0.0398308493
 C        -3.4350784677       -4.1949551016        0.7334658816
 O        -4.8661963437       -5.9365145737       -1.6708691229
 O        -1.1867562585       -4.6759736460       -0.0112286173
 C        -3.3927331718       -7.2234416766        0.4963878679
 C        -1.3729610543       -7.2146199235       -1.0193398941
 C        -2.7760506921       -2.8618388939        1.1141143181
 C        -2.1770791410       -2.3036806662       -0.1318715804
 C        -0.8873562085       -1.4372255532       -0.0860673006
 C        -1.3257043683        0.0240699450       -0.5100463548
 C        -0.5787640825        1.1536089504        0.1792239266
 C        -0.0217774608       -1.5501488326        1.2820462287
 C         0.0569386971       -1.8955836244       -1.2240105338
 O        -2.6450138940       -2.6133056667       -1.2467934586
 O        -2.0033961036        0.2074496114       -1.4742962888
 C        -1.5655941119        2.0406106705        0.9557657148
 C        -2.2443687843        1.2899148327        2.1685628411
 C        -2.8524985975        2.0520177616        3.3321315239
 C        -1.7021644475        2.3923363336        4.2913316149
 C        -2.0705782672        2.6109316195        5.7818463906
 O        -2.4116412398        0.0794703719        2.0815515404
 O        -0.5131190568        2.2264110109        3.9595163534
 C        -3.3007597910        3.4587356777        2.9596042901
 C        -4.0230416338        1.2265552201        3.9458929377
 C        -0.9141602491        3.0660763459        6.6377011613
 C        -0.2272424073        4.3717566589        6.1225880357
 C         1.2730168167        4.5829661310        6.7571554369
 C         2.0228771577        3.2821058920        6.2900406368
 C         2.6714982220        3.4051437754        4.8967012297
 C         1.8689618862        5.9041347025        6.1352533416
 C         1.2882293585        4.6504399057        8.2630665620
 O        -0.5278296755        5.0563243313        5.1255187883
 O         1.8734228161        2.2811238534        6.9576062438
 C         3.1011642220        1.9398119120        4.5689117657
 C         4.6000708085        1.7118148443        4.4142327245
 C         5.1766917682        0.3424364913        3.7696778338
 C         4.8582907729        0.5371982640        2.2673842457
 C         5.6233499458        1.6964960545        1.5708874650
 O         5.3104886425        2.6290773704        4.6331396696
 O         4.0612221215       -0.1874389863        1.6467747364
 C         6.7239238307        0.2740805747        4.0412177309
 C         4.4980988292       -0.8733481416        4.4029361908
 C         5.3908528793        1.9154193457        0.0448230697
 C         4.1387643371        2.8051167069       -0.1883588692
 C         3.9793939222        3.6504854333       -1.5806546456
 C         4.1257987830        2.6613354749       -2.9212914814
 C         3.2653534303        2.8830167123       -4.2025095837
 C         2.5782498914        4.3636129048       -1.5553903684
 C         5.2136381924        4.5822181522       -1.8372656097
 O         3.2787190427        2.9258542461        0.6679229011
 O         5.0615507189        1.8965687386       -2.9489587588
 C         2.8868136223        1.5049244708       -4.8851961433
 C         1.5579045279        0.9536927299       -4.4460298508
 C         0.8748177751       -0.0543252150       -5.4260892336
 C        -0.6111694845       -0.2156395343       -4.9798911303
 C        -1.4670044081        1.0455060135       -4.7597409053
 O         1.0295745068        1.3818357734       -3.4199908192
 O        -1.0201467172       -1.3354403969       -4.5572712605
 C         0.9393202344        0.6086556665       -6.8908204781
 C         1.6344338579       -1.3232128758       -5.2381180583
 H        -6.1799570635       -2.7308861652       -7.1914933473
 H        -6.8138945753       -1.2645978978       -6.4215137240
 H        -5.3108523027       -1.1467622003       -7.3525899034
 H        -4.9249277566       -6.4283723800       -4.0097570760
 H        -3.6556208229       -6.2397742459       -5.3217039884
 H        -5.2779419118       -2.6559382341       -2.6336300962
 H        -6.1761081347       -4.1473730207       -2.7896332470
 H        -6.8693402551       -2.6127403631       -3.1621575241
 H        -6.7634731067       -5.2059892860       -5.0097721516
 H        -7.3461959987       -3.6694843377       -5.5633700035
 H        -6.2308030913       -4.3985047164       -6.5878974738
 H        -2.8932774071       -7.3348048292       -3.2577505211
 H        -2.1950009780       -5.6844760588       -3.1558738521
 H        -4.4355655289       -4.2732352893        0.3443705786
 H        -3.5270997243       -4.7391869259        1.6647641723
 H        -4.3785251775       -6.6494583611        0.7758993805
 H        -3.0620139423       -7.2809387425        1.5720861133
 H        -3.7002620006       -8.2374729012        0.2319973037
 H        -1.6443382776       -8.1433574324       -1.6363997038
 H        -0.5853588140       -6.6883785916       -1.6650258498
 H        -0.7942329328       -7.6592203186       -0.0559228948
 H        -2.0911515357       -3.1502770236        1.9481299129
 H        -3.5532921983       -2.2110675620        1.5045100199
 H         0.1720803115        0.7646708228        0.9112752819
 H        -0.0882202200        1.7001086950       -0.6003914854
 H        -0.5273167509       -1.0119094186        2.0959631212
 H         0.9729086202       -1.1122741851        1.2856761619
 H         0.1103526470       -2.5584655669        1.6496586841
 H         0.4766660918       -2.9517042529       -1.0179313297
 H        -0.4858403044       -1.9788951981       -2.1704478181
 H         0.8957745107       -1.1596180646       -1.2768495962
 H        -0.9842946557        2.8885875174        1.3555682018
 H        -2.4246767843        2.4087272414        0.3204148714
 H        -2.9730639941        3.2652582562        5.7696909989
 H        -2.3336175176        1.6255205665        6.0329397309
 H        -2.6317264300        4.2248285089        2.5391768646
 H        -3.7393538791        3.9675261481        3.7904485884
 H        -4.1152481027        3.5234597961        2.2880844101
 H        -4.4051815346        1.5224016053        4.9282939160
 H        -4.8587747580        1.1329441523        3.2279667019
 H        -3.7418638051        0.0856611931        4.0223353657
 H        -0.0848228713        2.4134967607        6.8387123674
 H        -1.2752667488        3.3343182643        7.6432606826
 H         1.7730672578        3.6161654479        4.2398199740
 H         3.4022225696        4.2386830730        4.7558909407
 H         1.4528951916        6.1007282321        5.1470094559
 H         2.9564028853        5.8114846789        6.0497052392
 H         1.5375544283        6.7735486106        6.6825659195
 H         1.4912715636        3.6852724066        8.7547301353
 H         2.0376793094        5.3452852989        8.5409522226
 H         0.3479732896        5.0452916259        8.6213886833
 H         2.8061086497        1.2259373966        5.3143703875
 H         2.6889862143        1.7060661457        3.5934309675
 H         5.5213089156        2.6193414364        2.0819893193
 H         6.7324693849        1.4742772239        1.5314437043
 H         7.2304347344        0.2209739411        3.0784448122
 H         6.9944541728       -0.4972965765        4.6757168691
 H         7.0644120550        1.2420009362        4.4580941432
 H         3.4265927282       -0.9164419094        4.0737182002
 H         5.0098059254       -1.7342312850        4.0656626081
 H         4.6472389254       -0.7949626246        5.4275052680
 H         5.2401156740        0.8691072158       -0.3503758382
 H         6.2525131585        2.3861130066       -0.4714072040
 H         2.4360447748        3.4526441936       -3.9124207957
 H         3.8312298079        3.4000613980       -4.9711600937
 H         1.7675908779        3.7746789858       -1.1092992224
 H         2.2518112081        4.5936788629       -2.4940245661
 H         2.6120706156        5.3462736711       -1.1027835369
 H         5.1266004289        4.9588835925       -2.8520085516
 H         5.2100379855        5.2844990190       -1.0797116460
 H         6.0032186478        3.9391043238       -1.7382240594
 H         3.0742841370        1.4911913231       -6.0681900568
 H         3.5682344934        0.8129421379       -4.5070837513
 H        -1.4423264366        1.3184035027       -3.7080392688
 H        -1.1453328625        1.9060422064       -5.3655224386
 H        -2.4582496386        0.7441167986       -5.0660018483
 H         0.3036133265        0.0318727289       -7.5515819814
 H         1.9437844048        0.6824645759       -7.2849681021
 H         0.5497293021        1.6618192251       -6.8228543651
 H         1.5077885831       -1.9920228693       -6.0883034196
 H         2.7134894254       -1.1844890750       -4.9167977345
 H         1.1936640623       -1.9075515771       -4.3924500516
 Na       -2.9106081622       -1.4074723924       -3.1160732117
