155

 C        -5.1989332633       -1.6888241287       -6.6409139508
 C        -4.8071060487       -1.8946175135       -5.1746909063
 C        -5.0806193390       -3.3252280979       -4.7122912480
 C        -3.5789117656       -4.0334736663       -4.2622508070
 C        -3.4323541147       -5.6083144915       -4.4423883694
 C        -5.9491459343       -3.2982252564       -3.4039459057
 C        -5.7502798724       -4.1680909998       -5.7714630448
 O        -4.2656935053       -0.9722266255       -4.5630549930
 O        -2.7481367013       -3.4137093663       -3.6733889391
 C        -2.7369906182       -6.2707638403       -3.2732203805
 C        -3.4504490387       -6.0635173211       -1.8962734539
 C        -3.0593640521       -6.8066677136       -0.6026937515
 C        -2.2842823196       -5.7077240839        0.2582450620
 C        -3.1644930266       -4.6984621228        1.0200150323
 O        -4.3515301858       -5.2218597711       -1.8600337230
 O        -1.1051311539       -5.5007690598        0.0870523871
 C        -4.3313264217       -7.3013287128        0.1584928424
 C        -2.0856758822       -7.9836798770       -0.9200304186
 C        -2.5540469644       -3.3798398018        1.4562439143
 C        -2.2654914088       -2.4156099120        0.2483165936
 C        -0.9170118112       -1.5977284020        0.1198926179
 C        -1.2307127446       -0.1058131778       -0.2955521779
 C        -0.3853206252        1.1180712414        0.2749892573
 C        -0.2230433218       -1.5701673823        1.4965153429
 C        -0.0872171123       -2.4401524164       -0.9610334043
 O        -3.1189116425       -2.4637007855       -0.6715292886
 O        -1.8927097492        0.1437718483       -1.2818745589
 C        -0.9608142103        1.7624879972        1.5939456262
 C        -2.2693966051        1.0009856021        2.0898327967
 C        -2.9582289865        1.7608587861        3.2728324127
 C        -2.0218059313        1.7521456928        4.5306262581
 C        -2.4821821329        2.3377882310        5.9302329806
 O        -2.7986965905        0.0055149198        1.6266271169
 O        -0.9091844826        1.3231598933        4.3842822376
 C        -3.3500871888        3.2289945127        2.8792805031
 C        -4.2041727617        0.9916066024        3.6738860243
 C        -1.2569195556        2.8137291761        6.6836260238
 C        -0.5876654446        4.1211266772        6.1212851949
 C         0.7751002770        4.5648882059        6.7158274009
 C         1.7895441844        3.3799221279        6.3974171320
 C         2.3955317602        3.2881458013        5.0686876643
 C         1.1737732907        5.7807890099        5.8360195574
 C         0.8054888571        4.9318333108        8.2486333235
 O        -1.1695664769        4.7583017551        5.2882104459
 O         1.9845650350        2.5857558730        7.2974414258
 C         3.0068164408        1.8846646204        4.7589750016
 C         4.4365831500        1.7978396212        4.1430356006
 C         4.9562658271        0.4754684099        3.3674741368
 C         4.9086725176        0.7779391211        1.8443541187
 C         5.8696789145        1.8743334121        1.3373842044
 O         5.1940413248        2.7907937405        4.1055288740
 O         4.2895586748        0.0566194647        1.1032308074
 C         6.4043784721        0.2923243610        3.9667332518
 C         4.1192114792       -0.8360045939        3.8129551096
 C         5.6272833975        2.3477091347       -0.1223002773
 C         4.4017108427        3.2896801113       -0.2311382348
 C         4.1602599272        4.1165424556       -1.5893376351
 C         4.2269069095        3.1280433796       -2.8478014845
 C         2.8682628105        3.0932273848       -3.8177539127
 C         2.7198169407        4.7911128008       -1.4568478339
 C         5.1150645961        5.3398199300       -1.8548831256
 O         3.5077815735        3.3449355645        0.5854728790
 O         5.1447913226        2.4036838471       -3.0417897841
 C         2.8510542911        1.8783939711       -4.8278609689
 C         1.4540575369        1.2916612779       -4.6716479932
 C         1.1647101978       -0.0718725491       -5.4947419168
 C        -0.3311760498       -0.3836292417       -5.1381122398
 C        -1.4097822545        0.1050034747       -6.0332808870
 O         0.5721659908        1.7226608659       -3.9872389751
 O        -0.6005405840       -1.0244301080       -4.1760234855
 C         1.3129395780        0.2058786559       -6.9516200470
 C         2.1005432277       -1.2393225403       -4.9484692815
 H        -5.9907423275       -2.3875979324       -6.7433475790
 H        -5.5349684093       -0.6867475704       -6.6697899363
 H        -4.4503010412       -1.9794738334       -7.4544089739
 H        -4.3189840613       -6.1507823198       -4.6651535922
 H        -2.7901529437       -5.6546044540       -5.2317901785
 H        -5.5009783565       -2.7710772395       -2.5308228352
 H        -6.2411677751       -4.2388501955       -2.9897874662
 H        -6.9242689269       -2.8238407357       -3.6432043561
 H        -6.0901726789       -5.1513164388       -5.4726121453
 H        -6.6618790813       -3.7428310675       -6.1504997488
 H        -5.1088020255       -4.4709357540       -6.5842391388
 H        -2.4759587896       -7.3041597354       -3.3762094923
 H        -1.8081474062       -5.7412343998       -3.0737304221
 H        -3.9888462182       -4.4088884535        0.2822202302
 H        -3.8723117440       -5.0720683430        1.8020088578
 H        -5.1425639179       -6.7205103260       -0.0689830606
 H        -4.2599511281       -7.3592964418        1.1945862095
 H        -4.7731293535       -8.2957374869       -0.0216260797
 H        -2.5565022113       -8.7878519543       -1.5768094685
 H        -1.2659344354       -7.7166319804       -1.5577324630
 H        -1.6437505713       -8.5632372339       -0.1249214912
 H        -1.8167590297       -3.5099313568        2.2538765953
 H        -3.3948202580       -3.0057879762        1.9311118343
 H         0.6387882604        0.9613401151        0.3315171900
 H        -0.4923302780        1.8008683876       -0.5196510306
 H        -0.8468558177       -1.2278422768        2.3686964631
 H         0.7766876246       -1.0805913585        1.4620193443
 H         0.0717937032       -2.6428463385        1.7596222304
 H        -0.1132438254       -3.4877220229       -0.8540861744
 H        -0.6463592924       -2.2479323399       -1.9129221996
 H         0.9142563212       -2.0770512701       -1.1394224381
 H        -0.1792510419        1.8321991708        2.4132121044
 H        -1.2796328684        2.7247239849        1.3630374746
 H        -3.3273312518        3.0303709677        5.7422012802
 H        -2.8221545671        1.4892179039        6.4810774413
 H        -2.6164598523        4.0501412971        2.8982596043
 H        -4.1347951926        3.6325383104        3.5036857876
 H        -3.7584449361        3.3056327294        1.8933155676
 H        -4.7724708096        1.4689172323        4.5062449293
 H        -4.8572154143        0.9526189482        2.8377719284
 H        -4.0410722248        0.0002777973        4.0200088388
 H        -0.4802432860        2.0357764153        6.5933925172
 H        -1.5046119904        2.8857320176        7.7367564127
 H         1.6460466434        3.4465848244        4.2885683210
 H         3.1287748170        4.0834510136        5.0258436585
 H         1.0904620504        5.6287972150        4.7523945362
 H         2.2476548673        6.0985378751        6.0251478730
 H         0.6975571353        6.6719080102        6.1837575267
 H         0.3801575748        4.0720075976        8.8215259462
 H         1.8471138805        5.2013462114        8.5869163914
 H         0.1371839282        5.7959171975        8.2823879733
 H         3.0515828426        1.2405401048        5.6375547945
 H         2.3852737642        1.2706360919        4.0832244411
 H         5.9185793312        2.7520155962        1.9333308967
 H         6.8696903933        1.4330165391        1.3271065879
 H         6.3896543190        0.7577492661        4.9477952655
 H         7.2034763790        0.7893250585        3.3206200335
 H         6.6220312672       -0.7479213209        3.9783453705
 H         3.0862931782       -0.6499389695        3.7586299848
 H         4.3582951575       -1.6150400308        3.1276559130
 H         4.4374373961       -1.0191706435        4.8806420967
 H         5.5672508845        1.4462954019       -0.7713868418
 H         6.4190333223        2.8487305097       -0.6681555896
 H         2.0403633105        3.0226804881       -3.0547425973
 H         2.8096418793        4.0171746837       -4.3899558089
 H         1.9485084463        4.0501195358       -1.3584272505
 H         2.5644269738        5.4929678648       -2.3223984570
 H         2.6239068306        5.3968237368       -0.4984788256
 H         4.6048294458        5.8812821728       -2.6475138805
 H         4.9809406369        6.0063957322       -0.9240698049
 H         6.1653613111        5.0503971428       -2.1296060153
 H         3.1275027013        2.2716119638       -5.7918339142
 H         3.6313176939        1.1994037183       -4.6117499309
 H        -1.2437818039        1.1261675055       -6.0346123849
 H        -1.3710912887       -0.2970393420       -7.0604310921
 H        -2.4526991287       -0.2301670446       -5.7408790030
 H         0.7188595089       -0.4939772567       -7.5775990628
 H         2.3616968643       -0.0943830356       -7.2664597492
 H         1.0455082612        1.1714079682       -7.2812499667
 H         2.2015407290       -2.1181573943       -5.6078952324
 H         3.0831485799       -0.9533039573       -4.7464583078
 H         1.6229898685       -1.5249274777       -4.0336082299
 Na       -2.7276536961       -1.1967763595       -2.8215660743
