155

 C        -4.7714360742       -1.3525255434       -6.6891428907
 C        -4.5559675806       -1.9528443580       -5.2745489158
 C        -5.0657149292       -3.3162828230       -4.6609385802
 C        -3.6565483582       -3.9989009367       -4.0828257339
 C        -3.3680158486       -5.5085778889       -4.3873128110
 C        -5.9700488190       -3.1041574485       -3.4513630970
 C        -5.6590762817       -4.3302481309       -5.6570430855
 O        -4.0916004251       -1.2592352318       -4.3993648938
 O        -2.8057695501       -3.3584865184       -3.5133382756
 C        -2.6517491998       -6.0912977351       -3.1502994386
 C        -3.5635400508       -6.0288984751       -1.9675214333
 C        -3.1168498613       -6.7935467854       -0.7301785152
 C        -2.4410895215       -5.7505303245        0.2357799568
 C        -3.2638723410       -4.6958352561        0.9118186931
 O        -4.4917537671       -5.2934206749       -1.9463220379
 O        -1.2566433867       -5.6869021290        0.3591933864
 C        -4.3543366095       -7.4114099183       -0.0448297606
 C        -2.1009683632       -7.9269503933       -0.8970446967
 C        -2.3950211784       -3.4206266456        1.3598332713
 C        -2.1874586888       -2.4973866901        0.2038835612
 C        -0.8685364862       -1.6067640431        0.2205162063
 C        -1.2659618718       -0.1455966003       -0.1767462380
 C        -0.4347644832        0.9904524362        0.3208786514
 C        -0.0556842765       -1.6911421270        1.6165689373
 C         0.1233975067       -2.1590073400       -0.8150840076
 O        -3.0040555414       -2.2639741505       -0.6570012373
 O        -1.9266029401        0.0243763837       -1.2065317366
 C        -0.8604100251        1.4574276071        1.7082937048
 C        -2.3529498203        0.9454813942        2.0505321843
 C        -3.0667553499        1.6431856734        3.2075344725
 C        -1.9804637294        1.6282398577        4.4322284861
 C        -2.4484901686        2.3761431773        5.7675879887
 O        -2.7972492595       -0.0831190742        1.5601529833
 O        -1.0010537355        0.8749978566        4.4527634235
 C        -3.2791665949        3.1062409020        2.9542339254
 C        -4.3462654815        0.9733003158        3.6030390849
 C        -1.2818873277        2.8080530791        6.6567256060
 C        -0.7428372852        4.0740364135        6.1232258778
 C         0.7302860966        4.5461745766        6.5519610115
 C         1.7011421718        3.4064509871        6.4514493692
 C         2.4796193463        3.1806219771        5.1654477745
 C         1.1779503718        5.8567618503        5.8685932574
 C         0.4085367061        4.8342574097        8.0683884724
 O        -1.4131561482        4.7066530907        5.2988962928
 O         1.9658809893        2.6349429012        7.3491354647
 C         3.0051159636        1.7314619143        4.8636296232
 C         4.3378811360        1.8850611775        4.1155950689
 C         4.8776036900        0.5627903690        3.2833672851
 C         4.9194782256        0.8731206149        1.7836648333
 C         5.9705875145        1.9132499313        1.2465093156
 O         4.9120596983        2.9028341594        4.1467926151
 O         4.1935057372        0.1661405976        1.1135324853
 C         6.3176254860        0.3443897402        3.9458379189
 C         4.0486836218       -0.6955779326        3.5830408162
 C         5.8957902333        2.5128305791       -0.1802470744
 C         4.5401815539        3.3436450763       -0.3545316254
 C         4.1422001737        4.2390653150       -1.5852868939
 C         4.0997829103        3.2449803518       -2.8546057076
 C         2.7186487336        3.0015847000       -3.5372144846
 C         2.8102288589        4.9826497139       -1.3521421947
 C         5.3017164057        5.2723539342       -1.9486506957
 O         3.5996821891        3.1690923810        0.3834055616
 O         5.1489006217        2.6876551611       -3.1657169711
 C         2.7024142347        2.1597317820       -4.7986685298
 C         1.3267159398        1.4176506217       -4.8361963368
 C         1.1665235491       -0.0062800182       -5.4427121102
 C        -0.2985352844       -0.4045387056       -5.1395130887
 C        -1.4444508142       -0.0248547535       -6.0523244710
 O         0.3963016613        1.9187549496       -4.2108001117
 O        -0.6294404069       -1.0391694716       -4.1183887958
 C         1.5548852431        0.0239240051       -6.9734434008
 C         2.0404516743       -1.0932468164       -4.7593800522
 H        -4.7110030427       -2.0530449787       -7.5021541463
 H        -5.6072554623       -0.6393886529       -6.5709238475
 H        -3.9183092092       -0.7667963822       -6.7165085885
 H        -4.2704082081       -6.1451408074       -4.5523087035
 H        -2.6628761754       -5.7114319834       -5.3190934003
 H        -5.5195304846       -2.4963428816       -2.6701880848
 H        -6.0996617354       -4.0563055818       -2.9027608549
 H        -6.9849064102       -2.7859208754       -3.6441727775
 H        -5.9824462082       -5.2239735716       -5.1928792240
 H        -6.5771816194       -3.9922754239       -6.0548514676
 H        -5.0567598135       -4.7027503984       -6.4854730464
 H        -2.2613684515       -7.1066488639       -3.1626456860
 H        -1.7582409643       -5.5505629563       -2.8291129495
 H        -4.1147604293       -4.3714009538        0.3588738079
 H        -3.7794724043       -5.1842243185        1.7309026388
 H        -5.1862778066       -6.6116663185        0.2021601083
 H        -4.2280267252       -8.0078655119        0.8970623946
 H        -5.0080028710       -8.0943956059       -0.5701181343
 H        -2.3679319133       -8.8528798863       -1.4037780191
 H        -1.0614392355       -7.6676266944       -1.3973798686
 H        -1.7647228321       -8.2831886970        0.0616276846
 H        -1.3931210839       -3.7049491543        1.7771175929
 H        -2.9281335578       -2.8617244308        2.2595032155
 H         0.6510218230        0.5549287131        0.3589655422
 H        -0.4201912492        1.7941901785       -0.4696846251
 H        -0.7370351701       -1.2958678844        2.3879108908
 H         0.7988680611       -1.0010079729        1.6740263194
 H         0.3777830244       -2.6325025876        1.9034875339
 H         0.2380006769       -3.2783984290       -0.5640870276
 H        -0.0351304376       -1.9594568314       -1.8639378879
 H         1.1651874056       -1.7835945147       -0.6642072476
 H        -0.2576580713        1.0258193513        2.4782040414
 H        -0.7762818158        2.6217372453        1.7396206943
 H        -3.2130870918        3.0924043796        5.4887981607
 H        -3.0339757691        1.5667162487        6.2688701891
 H        -2.3470123628        3.6583057396        2.8812026674
 H        -3.8969734833        3.5891778187        3.6890246640
 H        -3.7927093016        3.2951703161        2.0252734351
 H        -4.9143631889        1.4553970762        4.3923172993
 H        -5.0098418346        0.8119117209        2.7039649160
 H        -4.1554818989       -0.0436796012        4.1296624377
 H        -0.4750902411        2.0792350589        6.6614683168
 H        -1.6354083940        2.9954864662        7.6951901920
 H         1.9882726441        3.4081505326        4.2065179322
 H         3.3938565829        3.8499074864        5.2433824866
 H         0.7410298458        5.8139187818        4.8670155378
 H         2.2085783660        6.1172566655        5.7170403480
 H         0.8243121226        6.6958067815        6.4029437767
 H         0.8957313500        4.0645276147        8.6462971728
 H         0.8559334673        5.7473977935        8.3013214371
 H        -0.6743247000        4.9159882171        8.2104643218
 H         3.0400472405        0.9954962357        5.6658545954
 H         2.4073057331        1.2233483293        4.1129810091
 H         6.0189560225        2.8304814949        1.8957412914
 H         6.9726051579        1.4608597022        1.3239595459
 H         6.1507638779        0.3986311216        5.0131950206
 H         6.9668428358        1.0876623754        3.6989415503
 H         6.7423995716       -0.6128164911        3.5530345204
 H         3.0143374136       -0.6481509762        3.1428290180
 H         4.5075278851       -1.5085166140        3.0692927607
 H         4.0392434944       -0.8178408124        4.6061809276
 H         5.8620569639        1.7274826513       -0.9350956151
 H         6.7882719669        3.0116369983       -0.5978868146
 H         2.0062803957        2.6525083269       -2.8056662839
 H         2.4594152119        4.0755824054       -3.6479608467
 H         2.0241891950        4.1864741956       -1.3023351750
 H         2.6528736220        5.6200050873       -2.1635012667
 H         2.7462896816        5.5314674106       -0.4495401634
 H         5.0627036341        5.6776700065       -2.9539282372
 H         5.4317261262        6.0145541471       -1.2373058811
 H         6.1257433300        4.6184698021       -2.0600309976
 H         2.7996915318        2.8445050374       -5.7309236732
 H         3.6846547604        1.6234878231       -4.7774995502
 H        -1.8311401467        1.0276627721       -5.8865922452
 H        -1.2817548745       -0.2165557773       -7.1130155431
 H        -2.1359428975       -0.7855877887       -5.8307256879
 H         1.4165397497       -0.9188586693       -7.4761172801
 H         2.5726340880        0.1771414139       -7.1538611906
 H         0.8809276314        0.7631124039       -7.5187672520
 H         2.5394100048       -1.5261752486       -5.5732701432
 H         2.9210782112       -0.7014923645       -4.1864512281
 H         1.4909961736       -1.8197423863       -4.1739336684
 Na       -2.4907072704       -1.2960788168       -2.8176156366
