155

 C        -4.5779426098       -1.5084656476       -6.9010952416
 C        -4.4410143850       -1.9488100778       -5.3453529958
 C        -4.8932357425       -3.2891857706       -4.7536375826
 C        -3.6673571609       -4.0436734322       -4.1397341024
 C        -3.4898059504       -5.5386554498       -4.4563002840
 C        -5.7442886666       -3.0423624161       -3.4214777381
 C        -5.6861566297       -4.1479889620       -5.6800966637
 O        -3.8221156349       -1.1419280531       -4.6954771175
 O        -2.8069787548       -3.5723377659       -3.4115282584
 C        -2.7331030895       -6.3460835415       -3.3776305216
 C        -3.6265896438       -6.2343872758       -2.0435950012
 C        -3.1759132847       -6.9321151445       -0.7254146620
 C        -2.4216564561       -5.8547713189        0.3463881155
 C        -3.2723730373       -4.6909124650        0.8487385668
 O        -4.7127298966       -5.7081877432       -2.0227720428
 O        -1.3478404715       -6.0774378287        0.7406084853
 C        -4.4639153455       -7.3854909976        0.1118097940
 C        -2.2301134619       -8.0513575362       -0.8611235411
 C        -2.5066006344       -3.4741699169        1.3597957354
 C        -2.0186356733       -2.5595635022        0.2270698131
 C        -0.6890618254       -1.6549181048        0.2469757290
 C        -0.9893301703       -0.1723303684       -0.0815864720
 C        -0.2307537496        0.9555786586        0.6268319253
 C         0.0794527691       -1.6883123934        1.6511062411
 C         0.2371766867       -2.1006254055       -0.9271046306
 O        -2.4909762703       -2.6582265342       -0.9207290469
 O        -1.4443741686        0.0945398518       -1.2312528349
 C        -0.7580287135        1.3205404024        2.0253420225
 C        -2.2465970284        0.8966994931        2.2191853069
 C        -3.0177894563        1.4920673935        3.3465255220
 C        -2.3124335172        1.2832894369        4.7449831115
 C        -2.6633769117        2.2307698848        6.0077618694
 O        -2.6799505814        0.0818230103        1.4258249240
 O        -1.6134565069        0.2701270124        4.8963647120
 C        -3.2414684973        3.0392852975        3.1831502775
 C        -4.4827307538        0.7919860329        3.3394461213
 C        -1.4384410335        2.7575825985        6.8439050912
 C        -0.8109423156        3.9270469754        6.0794957482
 C         0.5402881432        4.5535935792        6.6090951538
 C         1.6185024117        3.4103248950        6.4263878479
 C         2.3318541570        3.2939711167        5.0988860268
 C         0.8445291945        5.9109034915        5.9540295134
 C         0.2262397651        4.8842978329        8.0558467537
 O        -1.2994579389        4.2821309749        5.0290811399
 O         1.5890096513        2.5775539237        7.2540954639
 C         2.9678944513        1.8910986041        4.8274802200
 C         4.2318541375        2.0849320820        3.9543278869
 C         4.7570036509        0.7766927114        3.1691215007
 C         4.8686000101        1.1707205636        1.6776458345
 C         5.9390297232        2.1721145265        1.3169711030
 O         4.7521086149        3.1584747867        3.7802922383
 O         4.2445874087        0.5055528816        0.8796750078
 C         6.1165427952        0.3667115447        3.8136218363
 C         3.8441379998       -0.4858868670        3.2187991717
 C         5.8130188879        2.5605680274       -0.1465403841
 C         4.4909491605        3.3073685649       -0.3459805127
 C         4.4672678697        4.4431099348       -1.5641865283
 C         3.9650256521        3.5506116677       -2.8004395704
 C         2.5425095104        3.0353747200       -3.0318161520
 C         3.3404338603        5.5075235849       -1.2719441893
 C         5.8832952841        5.0037733335       -1.9355615421
 O         3.4705940572        3.1990942257        0.2870810853
 O         4.8286014608        3.1386974045       -3.5097447243
 C         2.4742020035        2.4895059329       -4.4975915241
 C         1.1136810924        1.6373988919       -4.8172164774
 C         1.2524999120        0.0789248148       -5.1156901673
 C        -0.1166069563       -0.4817000798       -5.0164185703
 C        -1.1585067251       -0.1243560673       -6.0354955276
 O         0.1435475756        2.2660810330       -4.9951201815
 O        -0.3338758721       -1.3040616124       -4.1419178962
 C         1.7786242326        0.1635705543       -6.6071689469
 C         2.2080433724       -0.8058868582       -4.3315186062
 H        -4.0675511318       -2.2767000190       -7.4927556090
 H        -5.6376935057       -1.4415321277       -7.1479301041
 H        -4.0706412314       -0.5519415480       -6.9605774040
 H        -4.4062350948       -6.1228258681       -4.6976900312
 H        -2.9110240623       -5.6613482703       -5.4134256280
 H        -5.1048002639       -2.5911565632       -2.6051843004
 H        -6.1202517265       -3.9578709337       -2.9753832089
 H        -6.6181342710       -2.3727582624       -3.5052015082
 H        -5.7955582671       -5.1862370201       -5.5689850557
 H        -6.6380688105       -3.7438560520       -5.7597638596
 H        -5.3627825317       -3.9293493328       -6.7054948592
 H        -2.7368088599       -7.3809686062       -3.5666375448
 H        -1.7328636209       -6.1506116265       -3.1359016577
 H        -3.9464937691       -4.3612846864        0.0559463532
 H        -3.9351884251       -5.0630034847        1.6764262432
 H        -5.3903724322       -6.7337204829        0.1517033354
 H        -4.3383271375       -7.4879256494        1.2202914342
 H        -4.8463410412       -8.3846954132       -0.2404166386
 H        -2.7361223671       -9.0024268532       -1.3747879348
 H        -1.1729810396       -7.8721416224       -1.2746826050
 H        -2.0252476907       -8.4729040533        0.1450287410
 H        -1.7079992101       -3.6880917861        2.1098357701
 H        -3.1761973585       -2.7659465041        1.9576036997
 H         0.8541829479        0.6067577283        0.7291118739
 H        -0.3524537395        1.7903687205       -0.0319654441
 H        -0.5323248633       -1.1682093677        2.4181597418
 H         1.0282608667       -1.0897944638        1.7214077686
 H         0.2749888254       -2.7349087936        1.8330959412
 H         0.6375421043       -3.0818431906       -0.6265090507
 H        -0.0596775008       -2.0733983988       -1.9496755865
 H         1.1411343007       -1.5690148475       -0.9433469471
 H        -0.2523359239        0.7856052143        2.7986677581
 H        -0.6051891008        2.4641618924        2.2526205049
 H        -3.4074807535        3.0136926283        5.7762061604
 H        -3.1689684393        1.4728636005        6.5611966958
 H        -2.3551748145        3.6489545221        3.4387236313
 H        -4.0053663805        3.3195237453        3.8462082038
 H        -3.5279343656        3.3200077781        2.2284665107
 H        -5.0592611693        1.1879862915        4.1742666826
 H        -4.9383746026        0.8942276026        2.3504980695
 H        -4.4147497430       -0.3705143364        3.4764210640
 H        -0.6746884694        2.0183825706        6.9575353420
 H        -1.7713949442        3.0526334350        7.8469870002
 H         1.6780728864        3.5845038457        4.2584304073
 H         3.1652347868        4.0422683523        5.0266941750
 H         1.2415016254        6.0467851112        4.9241529353
 H         1.5189579144        6.5501609664        6.6129584763
 H        -0.0210623694        6.4200713750        5.9424244990
 H        -0.1206640148        3.9822479820        8.6212104106
 H         1.1390299690        5.1999058954        8.4969094741
 H        -0.4820869863        5.7531411235        7.9743510214
 H         3.1678450256        1.4406900370        5.7718669333
 H         2.2667137989        1.2184396509        4.3639137579
 H         6.0341556646        3.0543889896        1.9788576692
 H         6.9266766192        1.7067526541        1.4218892935
 H         5.8613741899       -0.0316897754        4.8046495115
 H         6.6912618954        1.2335581326        3.9699878528
 H         6.7335643444       -0.4029519689        3.2219849708
 H         2.8336083047       -0.2711688726        2.8840214856
 H         4.2381607549       -1.2440801900        2.6690457682
 H         3.8271144272       -0.8565738198        4.2250811075
 H         5.7313008603        1.6166958083       -0.7193488898
 H         6.6984333191        3.0241139414       -0.6984118043
 H         2.3129582008        2.2129342771       -2.4311233519
 H         1.6276728111        3.6301832860       -2.8011469368
 H         2.3011121684        5.0316173118       -1.1458732277
 H         3.3132217062        6.1775596686       -2.0924284099
 H         3.6133981215        6.0848512403       -0.3583359052
 H         5.8006251934        5.9096275751       -2.6541968620
 H         6.3849364267        5.2584280471       -0.9956370085
 H         6.4141001915        4.2225265989       -2.4769758353
 H         2.4704823564        3.4923450588       -5.1870627678
 H         3.2502001845        1.8449198593       -4.8152765436
 H        -1.0739213675        0.8037071172       -6.5821065659
 H        -1.0656903994       -0.9454950645       -6.7746041272
 H        -2.1785629086       -0.2219643976       -5.5937218557
 H         1.6618255357       -0.7987515782       -7.1317581602
 H         2.8500376382        0.3380048635       -6.6252925758
 H         1.2729691029        0.9495939708       -7.2719463352
 H         2.1825749865       -1.7194028750       -4.8306970891
 H         3.2406142719       -0.4555522757       -4.3820931414
 H         1.9042294338       -0.9379369124       -3.3332135496
 Na       -2.4185638144       -1.3100045517       -2.9307592201
