155

 C        -4.3792434225       -1.8626265520       -6.5713535359
 C        -4.0004041940       -2.1837732707       -5.1791659077
 C        -4.7047231057       -3.2525943237       -4.3345346678
 C        -3.6627805834       -4.3823557852       -4.0110077945
 C        -3.8964143967       -5.8397018949       -4.2579247109
 C        -5.0222659923       -2.4244249503       -3.0510892865
 C        -5.9190659148       -3.8605012183       -5.0157733808
 O        -3.0634144429       -1.5821497078       -4.6575466670
 O        -2.5392367218       -4.1784666192       -3.5543609572
 C        -3.2380207775       -6.6466509134       -3.0629497921
 C        -4.0761111987       -6.4383454896       -1.8168574964
 C        -3.5659843776       -7.1337483726       -0.5014258947
 C        -2.5918294393       -5.9996235086        0.0848073193
 C        -3.1297315030       -4.9364475632        1.0126448778
 O        -5.1387667814       -5.8567475955       -1.8556716594
 O        -1.4863745853       -5.9161685885       -0.3760977997
 C        -4.6516204402       -7.5929031365        0.5139809499
 C        -2.6185571432       -8.3770604908       -0.7610369516
 C        -2.1757681609       -3.7798027833        1.4414388642
 C        -1.6371856499       -3.1217082287        0.1201303244
 C        -0.4172987026       -2.1523655586        0.2285212371
 C        -1.0418681331       -0.6963351884       -0.1531605093
 C        -0.6248248065        0.6375978828        0.4984233052
 C         0.3881093891       -2.0480484546        1.5599412679
 C         0.7144797630       -2.4889412760       -0.8527550972
 O        -2.2180236528       -3.1236121130       -0.9083012166
 O        -1.7863546703       -0.6350826943       -1.1053960027
 C        -1.1840869948        0.9938710309        1.9215717190
 C        -2.5457473180        0.3985367651        2.2198484442
 C        -3.5866968103        0.9460888895        3.2413364378
 C        -2.8852622732        1.1239769451        4.6711839949
 C        -3.5022246158        2.1855020963        5.6239322263
 O        -2.6787937667       -0.7051513221        1.6923092686
 O        -1.9464943726        0.4367237428        4.9831354422
 C        -4.1125882170        2.3278818380        2.5225286764
 C        -4.7892424937       -0.0891809083        3.4272513970
 C        -2.3966858213        2.7657488962        6.5169417334
 C        -1.1934637734        3.3870249674        5.8338145463
 C        -0.0244395093        4.0384542263        6.6400616011
 C         1.2091707877        3.1994045268        6.3271308730
 C         1.8456687232        3.3215004489        4.9032589775
 C        -0.0247254888        5.5266835177        6.1685207670
 C        -0.2864213798        3.9507044708        8.2057613684
 O        -1.1051226865        3.2984433292        4.6332789011
 O         1.5711071696        2.3625816687        7.2056406806
 C         2.6531912734        2.0778002695        4.4941734317
 C         3.9592942072        2.3490401173        3.6899451596
 C         4.4727917191        1.0468582024        2.8018129944
 C         4.3503730890        1.4788411486        1.3706826727
 C         5.5660243040        2.2499809037        0.7873710689
 O         4.4990460022        3.4007092757        3.5576911261
 O         3.3706480860        1.1404252178        0.7610857046
 C         5.9165238066        0.7772321621        3.3138265569
 C         3.6019361175       -0.2102679727        3.1130535822
 C         5.3802916016        2.9962699165       -0.5781165488
 C         4.3829828102        4.1434902045       -0.6129695619
 C         4.7774602048        5.2510434116       -1.7537662870
 C         4.5591184225        4.4763236833       -3.1290681152
 C         3.1647747356        4.4728423154       -3.7796517741
 C         3.8985389553        6.5095915634       -1.5617069651
 C         6.2896290033        5.6032294350       -1.4929473350
 O         3.3282156578        4.2606276979       -0.0544939151
 O         5.4572719427        3.7390288254       -3.5837181645
 C         2.9614708936        3.2580220064       -4.5752131800
 C         1.7958270035        2.3479224656       -4.4280026267
 C         2.0413730439        0.8427861347       -4.4917964559
 C         0.6836362265        0.0020436073       -4.5288619774
 C        -0.3523968450        0.2260659264       -5.6422485415
 O         0.6569864122        2.7417327391       -4.6839766576
 O         0.5058119625       -0.7849694202       -3.6230895428
 C         2.7426309063        0.5386304558       -5.8686513478
 C         3.0602254247        0.3367125756       -3.3302303427
 H        -4.1371815464       -2.7577328121       -7.1439773887
 H        -5.3814657854       -1.4725361220       -6.5665819154
 H        -3.6922766972       -1.0851948246       -6.9241175908
 H        -4.9678012000       -6.0940771722       -4.3121223065
 H        -3.4787838510       -5.9660743641       -5.2205721347
 H        -4.1485906027       -1.9716012110       -2.5680174984
 H        -5.2527310690       -3.1848321399       -2.3084022511
 H        -5.8481442752       -1.6770208508       -3.0803121050
 H        -6.3421627299       -4.5387610889       -4.2694764335
 H        -6.6285750945       -3.0526848430       -5.2112444768
 H        -5.6226076105       -4.4892004842       -5.8158041602
 H        -3.2118577105       -7.7243556057       -3.3310072965
 H        -2.1933808450       -6.1957130362       -2.8736042029
 H        -3.9875417632       -4.4692122242        0.5357877471
 H        -3.4592134060       -5.3448405113        2.0418736208
 H        -5.0535168665       -6.6475740386        0.8863843417
 H        -4.1133485195       -8.0575444099        1.3199549532
 H        -5.4542569914       -8.2108897417        0.2505265788
 H        -3.1219557137       -9.1018310803       -1.3788606913
 H        -1.6921118972       -7.9036056844       -1.1396402192
 H        -2.3798172772       -8.7135382996        0.1759675061
 H        -1.2548869806       -4.1588693548        1.8940516306
 H        -2.6974323353       -3.1331723119        2.0177639759
 H         0.4345842791        0.5992804822        0.5290887644
 H        -0.8758134925        1.4727310702       -0.1195513458
 H        -0.2256841166       -1.7115892223        2.3717818255
 H         1.1143255589       -1.2543628163        1.4105630663
 H         0.8516969132       -3.0034839629        1.5930065712
 H         1.6382036912       -2.9599543314       -0.5490626886
 H         0.3107742964       -3.1714993035       -1.6566220479
 H         1.0861210600       -1.5997891140       -1.4090957827
 H        -0.6003914423        0.3673455589        2.5446047388
 H        -1.0191144196        2.0675874982        2.1945639949
 H        -4.1802257475        2.9845198025        5.1682317581
 H        -4.1694604138        1.6418637432        6.3152470170
 H        -3.2702770454        3.0033401161        2.4621633010
 H        -4.9156948433        2.7142971802        3.1894023276
 H        -4.4245446162        1.9486115354        1.5147386538
 H        -5.4427483389        0.2548162189        4.2756371020
 H        -5.2522976419       -0.0551504430        2.4232313153
 H        -4.3952520903       -1.0173526321        3.6963177347
 H        -2.1731633058        1.9543676458        7.1991235968
 H        -2.9111936818        3.4733101516        7.2516337939
 H         1.1024704755        3.4496888005        4.1156084551
 H         2.5630579101        4.1244267906        4.7574514635
 H        -0.5191366274        5.5672853271        5.1987425903
 H         0.9270527617        5.9325916457        5.9608090775
 H        -0.5151373643        6.1938390138        6.9329125351
 H        -0.2379107647        2.9217355075        8.5193826818
 H         0.5502617628        4.4383307764        8.7467991699
 H        -1.2129786471        4.4131299450        8.4610503504
 H         2.8804120304        1.4450805785        5.3736034059
 H         1.8607533101        1.4643536981        3.9529780956
 H         5.9916280363        2.7996905632        1.6221035876
 H         6.3427877682        1.4813893428        0.5515936012
 H         5.8541366839        0.1991032153        4.1924804352
 H         6.4463261738        1.7253429542        3.6592685041
 H         6.6016607685        0.3840574237        2.6321927353
 H         2.5397676771       -0.1107519415        2.9112558151
 H         3.9456685023       -1.1857216500        2.5476609709
 H         3.6046666876       -0.5414097763        4.1730260450
 H         4.8310419237        2.3715052551       -1.2209759421
 H         6.3789165529        3.2523016052       -0.9787154937
 H         2.3334050873        4.5621582230       -3.0717608376
 H         3.0718386915        5.3165560301       -4.5328577312
 H         3.1317599483        6.5774122587       -2.2531062556
 H         4.4725050118        7.4643361187       -1.5604279081
 H         3.4129808383        6.4333419374       -0.5674845244
 H         6.6310009011        5.2207586157       -0.6028625071
 H         6.9531270471        5.1401643483       -2.2219772863
 H         6.6880188025        6.5785088131       -1.4111130002
 H         2.9447251541        3.3980497141       -5.6252026757
 H         3.8366621397        2.4024085864       -4.4719137073
 H         0.1648295334        0.4363300006       -6.6429708860
 H        -1.0367275592       -0.5701349766       -5.7666629004
 H        -1.0011382917        1.1019080775       -5.5479824456
 H         3.1989352796       -0.4729507965       -5.8849465681
 H         3.6493503457        1.1778859905       -6.0489441669
 H         2.0390532555        0.5815672609       -6.6338613620
 H         3.5074985268       -0.6350787466       -3.5332583258
 H         3.8762178423        0.9704791356       -3.2385999265
 H         2.5074040242        0.3822592064       -2.4228314523
 Na       -1.6093335730       -2.1311803263       -2.9432281846
