155

 C       -12.6531175925       -5.5187492636        2.1111479008
 C       -12.4408903902       -4.3981697608        3.0939412970
 C       -11.3375861469       -4.6269375151        4.1006448030
 C       -10.1253307039       -3.7416207509        3.6187581793
 C        -9.7733175258       -3.8688646619        2.0218356457
 C       -11.8154006248       -3.9984098409        5.4254262172
 C       -10.9703387573       -6.1126295975        4.3431198401
 O       -13.1797469261       -3.4415065167        3.2611861738
 O        -9.3538746746       -3.3451340826        4.4336820547
 C        -8.6396894165       -2.9486518824        1.3978465270
 C        -7.2193227086       -3.6152474308        1.5109127950
 C        -5.9660297777       -2.7715383706        1.8522568920
 C        -5.4921018494       -1.9665221632        0.6150241956
 C        -4.0962562576       -1.3519581459        0.7490092695
 O        -7.0906274108       -4.7702150274        1.1663263461
 O        -6.2407039841       -1.8144007155       -0.3349446118
 C        -6.2142112956       -1.7892072807        3.0302548593
 C        -4.9256657050       -3.7711523421        2.5309450059
 C        -3.1453450040       -2.1622586938       -0.2328265869
 C        -2.0165229488       -1.2946660316       -0.7917401767
 C        -2.0832943434       -0.5123550809       -2.2260894950
 C        -2.2563944571        1.0003305375       -1.8831763868
 C        -3.5487167146        1.6848787422       -2.3411587717
 C        -0.6627552009       -0.6291339741       -2.9400873378
 C        -3.1185235956       -1.1140568517       -3.1761083488
 O        -0.9452117857       -1.3040415751       -0.1983972528
 O        -1.4049103690        1.6311237909       -1.2422376760
 C        -3.6725340351        3.0584032110       -1.6073498794
 C        -4.2345596928        2.9848542214       -0.1755023315
 C        -4.2058456413        4.2514931257        0.7911070859
 C        -2.9168061359        3.9474719614        1.8256346776
 C        -3.1937398032        2.9123344386        2.9552868803
 O        -4.6853543808        1.9794282958        0.3120745341
 O        -1.8710057920        4.6063099858        1.7431533999
 C        -3.8406737296        5.4524495382       -0.0242642354
 C        -5.5478975139        4.3462238159        1.4940907436
 C        -1.9845851417        2.3447201157        3.8376223127
 C        -1.2099292224        1.2361035896        3.1239900635
 C         0.0296920513        0.5119761701        3.8455594688
 C         1.3223616632        1.2261708553        3.1486320408
 C         1.7966147750        2.7082064713        3.6390475136
 C         0.0304674063        0.8069348893        5.3228049575
 C        -0.0359043368       -1.0449750602        3.5352037106
 O        -1.5998483265        0.9051227640        1.9777475545
 O         1.9239119695        0.5290975325        2.3405771367
 C         2.6792603640        3.4951452438        2.5610877833
 C         2.1678468757        3.2259439913        1.1766163101
 C         3.0345816671        3.2744294075       -0.0305194222
 C         3.3153661827        1.8080015101       -0.6992161891
 C         4.7861770989        1.3527462973       -1.0406993762
 O         0.9938189195        2.9688645216        1.0367043495
 O         2.3716054980        1.1241834655       -0.9525048759
 C         2.0483157649        4.0518529172       -1.0873889715
 C         4.2501953158        4.1108522518        0.0621272065
 C         4.9215512627        0.0237279875       -1.7595016071
 C         6.3877851959       -0.4923305790       -1.8998596822
 C         6.7526888511       -1.7237380392       -2.7907040398
 C         7.6029802130       -1.1473445939       -4.0694202818
 C         9.0598481233       -0.9776361090       -3.8352759139
 C         7.4869985951       -2.6867567868       -1.8162102255
 C         5.5142289583       -2.5211360806       -3.3202958911
 O         7.3205659681        0.1229122285       -1.4655082078
 O         6.9673973430       -0.9248638816       -5.0782931557
 C         9.8104012904       -0.6370497209       -5.0743951470
 C        10.1601537369        0.8472327352       -5.3870171837
 C        11.4111815564        1.0357213944       -6.4231870802
 C        12.6589958306        0.7941379217       -5.4048797261
 C        13.2397272522        1.9893897880       -4.6857117504
 O         9.7131373785        1.7038921556       -4.7020582131
 O        12.9842823512       -0.3597991668       -5.1895733141
 C        11.4356320929       -0.1101238181       -7.3937190832
 C        11.2267125927        2.4912162302       -7.0261899625
 H       -13.5607853369       -6.0842312580        2.3087907369
 H       -12.8103467966       -5.1130652846        1.1290115372
 H       -11.8021621979       -6.1667827211        1.9789182155
 H        -9.4393752283       -4.8655895741        1.9788734739
 H       -10.6841989291       -3.7633954858        1.3600204279
 H       -11.0566787407       -3.3612681007        5.8826934794
 H       -12.0352034879       -4.8297180876        6.0601285663
 H       -12.7177182836       -3.3522278258        5.3272748203
 H       -11.8953137227       -6.7744045488        4.5377483961
 H       -10.4593479633       -6.6725862744        3.5753109136
 H       -10.2597912456       -6.2798644459        5.2231147805
 H        -8.7651648414       -3.0179730872        0.2868822854
 H        -8.6118768470       -1.8997501354        1.7618190675
 H        -4.1346759969       -0.2859758652        0.3084008744
 H        -3.6576401694       -1.2735596607        1.7367444582
 H        -5.1935094727       -1.5046889174        3.5146703159
 H        -6.7704594497       -2.2982683394        3.7979293754
 H        -6.7310499500       -0.9071367345        2.6067783437
 H        -5.4216064177       -4.2117001052        3.3747002408
 H        -4.5032874210       -4.5467752450        1.9740169970
 H        -3.9459567389       -3.3201845754        2.9115569446
 H        -3.8196385723       -2.7231343387       -0.9942238193
 H        -2.6137688998       -2.8484830984        0.4254170410
 H        -3.5966849270        1.8075247042       -3.4283947047
 H        -4.4290458378        1.0815859963       -1.9917263202
 H         0.0518506299        0.1174927612       -2.7134181772
 H        -0.8133658503       -0.6617193574       -4.0324604985
 H        -0.0538153210       -1.5291623855       -2.7155333845
 H        -2.7938511271       -2.1117139860       -3.5241304177
 H        -4.1503879394       -1.2675770137       -2.7200325414
 H        -3.2923532521       -0.4162635908       -3.9885494111
 H        -2.6663563964        3.6679918993       -1.6402125633
 H        -4.3376019962        3.7184324570       -2.1353557154
 H        -3.9019639378        3.4492669328        3.5892402561
 H        -3.7758924752        2.1093179333        2.4738604548
 H        -2.8587686303        5.2329217206       -0.4709879819
 H        -3.8368253961        6.2527127810        0.6575579643
 H        -4.5778226478        5.6757803042       -0.7579943683
 H        -6.2234719184        4.9647556056        0.8746632185
 H        -6.0355766702        3.4477120708        1.7357999042
 H        -5.3254751970        4.9895231413        2.3145889983
 H        -2.3303486439        1.8297852887        4.7574977162
 H        -1.3285467264        3.0695800287        4.2669589913
 H         0.8909392060        3.2938442587        3.7351017859
 H         2.3014489144        2.7387794564        4.6223706378
 H        -0.0659236974        1.8860301034        5.5028190507
 H         0.9788483285        0.6457050655        5.7921096473
 H        -0.8120421508        0.2119758351        5.7591169526
 H         0.9833280674       -1.5050171604        3.5059077634
 H        -0.8778201782       -1.3974637485        4.0537923130
 H        -0.3079484881       -1.1470042520        2.4380036633
 H         2.3325675306        4.5250963297        2.7776163092
 H         3.7799250447        3.4311139556        2.7629695047
 H         5.1492714745        2.1411758912       -1.8130791160
 H         5.4526761341        1.6074364414       -0.2099129784
 H         1.3835554689        4.6633448600       -0.4533627752
 H         1.3336265312        3.3236657471       -1.5680768169
 H         2.6202496331        4.6586609758       -1.7874951892
 H         4.9096164224        4.0723787405       -0.9114340404
 H         4.0327026651        5.1429030762        0.3074738534
 H         4.9551857473        3.7968820837        0.8597170786
 H         4.4421060420        0.0400068840       -2.7340137260
 H         4.3870051288       -0.6592809292       -1.1022912107
 H         9.0958839686       -0.3086610915       -2.9598177751
 H         9.3870786840       -1.9938397149       -3.6099461430
 H         8.4131156487       -2.3810081762       -1.4327767110
 H         7.6590165049       -3.6703973562       -2.2964388660
 H         6.7442366237       -3.0089492661       -1.0211032394
 H         4.8537544202       -1.8578704108       -3.8801342771
 H         5.8139753742       -3.3858862070       -3.8785429189
 H         4.8863871697       -2.8399123411       -2.4128473285
 H        10.7612133458       -1.1434087479       -5.1368145778
 H         9.4152230301       -1.0587653032       -5.9954244526
 H        14.1287064057        2.4605406823       -5.1883806817
 H        12.4992004002        2.8085905156       -4.6829004053
 H        13.4490759901        1.6787800907       -3.6201229248
 H        10.4732094929       -0.2629009641       -7.9651667998
 H        11.7984691181       -0.9774576539       -6.8819675213
 H        12.1826092385        0.2850978869       -8.0845149902
 H        11.8732587483        2.9116454173       -7.7644814849
 H        10.2469618354        2.4629004367       -7.6009074795
 H        11.0712332974        3.1675709365       -6.1591399557
 Na        0.3392778157        0.8369961552        0.2820465627
