155

 C        -4.8163252013       -1.9317592542       -6.3592492097
 C        -4.0287216568       -2.0617813990       -5.0767421442
 C        -4.5400241580       -3.1009394447       -4.0664744780
 C        -3.4196155490       -4.2242569937       -3.9732880608
 C        -3.8372056069       -5.7187840354       -4.0967170815
 C        -4.5059114927       -2.6097110569       -2.5342932222
 C        -5.9841573554       -3.6460211053       -4.4357777168
 O        -3.0218798697       -1.4402383870       -4.8657458576
 O        -2.2897803220       -3.9555267225       -3.6604255671
 C        -3.3694446903       -6.6729250915       -2.9906345078
 C        -4.2066409254       -6.6171399463       -1.7390220691
 C        -3.6477965308       -7.3905147747       -0.5238030207
 C        -2.4218720807       -6.4825037093        0.0574766024
 C        -2.8085195747       -5.1140666506        0.5996808315
 O        -5.0914222353       -5.7767366690       -1.6448517884
 O        -1.3159738741       -7.0208137430        0.1191773594
 C        -4.8291250507       -7.5093200365        0.5188700049
 C        -3.1550472790       -8.9260734705       -0.7654984889
 C        -1.6711729453       -4.2847982449        1.1528836505
 C        -1.1891504289       -3.2238082463        0.1603790509
 C        -0.1974956870       -2.0849088351        0.5453181372
 C        -0.6951091004       -0.6187654611       -0.0651564335
 C        -0.4674541530        0.6323309806        0.7944356848
 C         0.0874951959       -1.9742018905        2.1129430351
 C         1.1500311238       -2.3086159878       -0.2437813354
 O        -1.5108598017       -3.2545217210       -1.0164324950
 O        -0.9339070764       -0.6472916313       -1.2916399402
 C        -1.3334320628        0.8099903537        2.1052331630
 C        -2.7106306892        0.2336786272        1.9057342723
 C        -3.8625202266        0.6147513276        2.9185600597
 C        -3.1635175712        0.6798810554        4.3213512318
 C        -3.5050369157        1.7436093636        5.2859424079
 O        -2.8926061788       -0.5917971155        1.0344106054
 O        -2.3125186164       -0.1203841617        4.7012004841
 C        -4.4066877456        2.0343629940        2.3824541474
 C        -5.0126950364       -0.5032476855        2.9252341300
 C        -2.3409908436        2.2423251028        6.2036507386
 C        -1.5040986950        3.3296320042        5.6644832977
 C        -0.3940560515        3.9391521132        6.5116147317
 C         0.6708725953        2.8535444360        6.2359234305
 C         1.5626080584        3.0989202613        5.0455238251
 C        -0.0793195905        5.4081452146        5.9720937384
 C        -0.6612537216        4.0316486144        8.0287454314
 O        -1.6009804232        3.5406488348        4.4872824870
 O         0.8982381144        2.0552506728        7.0740787264
 C         2.3271094001        1.8495024362        4.5084018674
 C         3.6065007998        2.1425472897        3.6783336009
 C         4.2675659494        1.0918910766        2.6082033376
 C         4.0269881010        1.5233493496        1.1781680681
 C         4.7597359618        2.7572127333        0.6375698311
 O         4.2289101959        3.1875805948        3.7777840305
 O         3.1302986506        0.9959304928        0.5198184590
 C         5.7527360231        1.1681012648        3.0413088266
 C         3.7079603503       -0.3771984234        2.8084200958
 C         4.4769048401        3.2326592815       -0.8277373623
 C         4.1345528567        4.7633087740       -0.9150171133
 C         4.7378374839        5.7564955215       -1.9514410423
 C         4.9409595767        5.0341505175       -3.3245438142
 C         3.6942721503        4.6621427262       -4.0927252220
 C         3.6272232174        6.8937719419       -2.0558609517
 C         6.1218854000        6.1784077064       -1.4173479999
 O         3.3720385245        5.3266587665       -0.1239851959
 O         5.9898148961        4.6298800947       -3.7470774936
 C         3.7147628429        3.1506208204       -4.3549676000
 C         2.3542606722        2.4333419204       -3.9993096072
 C         2.3162363331        0.8248247953       -4.0422243830
 C         0.8733175760        0.1852928119       -4.2256305499
 C        -0.1598637438        0.8020142164       -5.0685341431
 O         1.4435817945        3.1222343974       -3.6825515134
 O         0.6000024686       -0.8184887281       -3.5488445581
 C         3.0827951777        0.5421257886       -5.4874026515
 C         3.0977955774        0.2474667408       -2.8636601722
 H        -4.3696464574       -2.6734438660       -7.0312587664
 H        -5.9033795574       -2.1287330615       -6.2229429316
 H        -4.6680539109       -0.9270358252       -6.6748152147
 H        -4.9447881949       -5.7149936411       -4.0554617607
 H        -3.4863398950       -6.0817909343       -5.1206244608
 H        -3.5551749148       -2.2823272627       -2.2343963808
 H        -4.8547348234       -3.4699214401       -1.9299575431
 H        -5.1973525293       -1.8126446098       -2.2955005270
 H        -6.1897782926       -4.3457398624       -3.6234167865
 H        -6.8158787540       -2.9085973437       -4.6340578613
 H        -5.7645586961       -4.1471614448       -5.3488860380
 H        -3.2504135308       -7.6710302583       -3.5710518327
 H        -2.3000284237       -6.2839561406       -2.7584656975
 H        -3.3003368149       -4.6543964876       -0.2150561743
 H        -3.6499402486       -5.1594695101        1.2685995600
 H        -5.3957946021       -6.5406229902        0.6667415871
 H        -4.3126374514       -7.7473875643        1.4970018289
 H        -5.3949949929       -8.3164540764        0.0438071251
 H        -4.0099961515       -9.4440710255       -1.2094843582
 H        -2.2827624702       -8.8655373747       -1.2749603319
 H        -3.0165146995       -9.3367768745        0.2279712773
 H        -0.6991028603       -4.8226000456        1.3860264639
 H        -1.9818725211       -3.6635309543        1.9802942782
 H         0.6075496656        0.6494126879        1.1516081383
 H        -0.5992447868        1.6380068910        0.2428756023
 H        -0.8882016704       -2.0361477715        2.6567649396
 H         0.8187532329       -1.2035728474        2.2895346617
 H         0.6892400263       -2.8970295164        2.4182572242
 H         1.0997538131       -3.1248262916       -0.9427264736
 H         1.4663179180       -1.4611239336       -0.7892016560
 H         2.0847020791       -2.4578483413        0.3398157736
 H        -0.9026118344        0.1684983028        2.9373162438
 H        -1.3108465607        1.7952353982        2.5613435937
 H        -4.0866900275        2.5558467505        4.8286224486
 H        -4.2137619597        1.1855063618        5.9315218443
 H        -3.6204890717        2.6579427514        2.6210254942
 H        -5.3382459162        2.2313630142        2.7880782155
 H        -4.5006818393        1.8584001583        1.3382544690
 H        -5.7878128787       -0.3021385494        3.6043016223
 H        -5.4184174004       -0.4998742937        1.9028445015
 H        -4.3955492653       -1.4757658198        2.9794287648
 H        -1.7573293301        1.3844913606        6.4113787843
 H        -2.8495606467        2.4858151254        7.1394306652
 H         1.1746454433        3.5361667690        4.1263527400
 H         2.3244381079        3.8115894709        5.4388367525
 H        -0.5641475987        5.5504103134        4.9525363365
 H         1.0053873017        5.5866129246        6.0015726669
 H        -0.5491388326        6.1006842286        6.5941695492
 H        -0.8380151697        3.0777578818        8.5133269056
 H         0.2583066913        4.4882111932        8.4957020285
 H        -1.4853920806        4.6558374288        8.3126902633
 H         2.5687610309        1.2297791060        5.3362729125
 H         1.5528344324        1.2393575677        3.9763514045
 H         4.6529738710        3.5324240921        1.3986500921
 H         5.8612714271        2.4067421165        0.6646833582
 H         5.9942263164        0.3902480751        3.8407571742
 H         6.0011389638        2.1347407039        3.3736955837
 H         6.4394383541        0.8786812647        2.2191139629
 H         2.6838988206       -0.4508276672        2.4598392164
 H         4.2324917134       -1.1332175835        2.2448476257
 H         3.7098305258       -0.6624803908        3.8077325702
 H         3.5402353877        2.7594400176       -1.1835761596
 H         5.3034888421        2.9157777753       -1.5457141603
 H         2.9067972265        5.1107221500       -3.5500823939
 H         3.7608987783        5.2734239491       -4.9751295370
 H         2.7221674075        6.4715104379       -2.4862795453
 H         3.9099351559        7.7627343167       -2.7061656359
 H         3.3489747611        7.1698639307       -1.0755646542
 H         6.1148580527        6.5877804971       -0.4045196674
 H         6.8318074293        5.3926980597       -1.2392639589
 H         6.7253917296        6.9088813666       -2.0223113871
 H         3.8956851563        2.9874415276       -5.4070759560
 H         4.6399885833        2.7253496811       -3.8240762020
 H         0.1679385957        1.3219887776       -5.9886757500
 H        -0.9387494240        0.0526313668       -5.3121040240
 H        -0.7219387409        1.5544636461       -4.5920494288
 H         2.9590305920       -0.4907952972       -5.7413357034
 H         4.1077300620        0.9094010651       -5.5188775366
 H         2.6154451003        1.1153679220       -6.2729626575
 H         3.1472313085       -0.8707128968       -2.9385524239
 H         4.0775625733        0.7444587331       -2.8024872678
 H         2.6287205473        0.4928794068       -1.8828801819
 Na       -1.2105347890       -2.1438415318       -3.1773243068
