155

 C        -4.3229333226       -0.9564080903       -5.6861249784
 C        -3.6017034143       -1.8270679482       -4.6919013162
 C        -4.2142702221       -3.0397688411       -3.8581769657
 C        -3.2208376596       -4.2987123082       -4.0741283788
 C        -3.7186378964       -5.6834613044       -4.3922749682
 C        -4.1459366995       -2.5858089295       -2.4047468466
 C        -5.6502759231       -3.4652717755       -4.2810062235
 O        -2.5676450719       -1.3888693448       -4.2640229587
 O        -2.0192302873       -4.1266661266       -3.7685842846
 C        -3.2022532817       -6.5577691115       -3.1982004962
 C        -4.0358226421       -6.4302636903       -1.9181326334
 C        -3.4951172602       -7.1511173364       -0.6212919646
 C        -2.4643546747       -6.3012812686        0.2534981140
 C        -2.7644147727       -4.7772061095        0.4162529559
 O        -5.0628181063       -5.7637685007       -1.9804941951
 O        -1.4951735961       -6.7886867087        0.7991109440
 C        -4.7793153096       -7.3497455739        0.2676099509
 C        -2.8393048624       -8.5793907004       -1.0600035419
 C        -1.5555979118       -4.0866107596        1.0288194496
 C        -0.6485788015       -3.3064226566        0.0163935959
 C         0.1946919682       -2.0482955685        0.3875861943
 C        -0.4813015280       -0.7564067471       -0.0935148790
 C        -0.3425224340        0.6341679199        0.7967576657
 C         0.5446895463       -2.0387992292        1.9146213091
 C         1.4284502386       -2.0792717910       -0.4403246212
 O        -0.5684460537       -3.6876667838       -1.1348108790
 O        -1.0186148630       -0.7123897883       -1.1825164044
 C        -1.3765782552        1.0027924664        1.9056196724
 C        -2.6708557585        0.0308856957        1.8862597199
 C        -3.8703244596        0.3017011032        2.7449969524
 C        -3.4473992843        0.4269641172        4.3034057576
 C        -4.2168564001        1.4477366891        5.1545379139
 O        -2.6704055844       -0.9442639394        1.1215232599
 O        -2.7779373690       -0.4059271838        4.8532005299
 C        -4.4076616754        1.7087804560        2.2861196795
 C        -5.0717757440       -0.7035159635        2.6591932244
 C        -3.3474325870        2.0693979802        6.2176833151
 C        -2.2659750332        2.8245332521        5.4881324431
 C        -0.9628063167        3.3345588242        6.0921644470
 C         0.2698992958        2.3645062973        5.7042962070
 C         1.3386918797        2.9117845008        4.8093848505
 C        -0.6298344968        4.7882641446        5.5915127180
 C        -0.9870075396        3.3247045427        7.7267649257
 O        -2.3507020818        2.8414203389        4.2208747141
 O         0.2870098718        1.2594369516        6.1730853036
 C         2.0660729229        1.7047599553        4.1558381819
 C         3.4479370289        2.2268746440        3.7519665550
 C         4.2689772771        1.7051972574        2.5217116739
 C         3.5380710753        2.2201894492        1.2137686201
 C         3.3052743702        3.7108817307        1.0418575469
 O         3.8939168400        3.1698241604        4.3345215269
 O         3.0167623387        1.4174808490        0.5035857973
 C         5.7768268231        2.1714744791        2.5331970443
 C         4.2471212281        0.1367547647        2.2763508058
 C         4.0169716053        4.2292795020       -0.2394468578
 C         3.6340637564        5.6980244077       -0.8059962103
 C         4.5824251967        6.2374277103       -2.0122765168
 C         4.7206016230        4.9325389740       -2.8558600371
 C         3.5820950456        4.4204310821       -3.6460617478
 C         3.8484661493        7.4523188610       -2.6816006584
 C         5.9183943097        6.7725654786       -1.4931086406
 O         2.6803032436        6.3177920543       -0.5437112731
 O         5.8049923974        4.3419264402       -2.8402730002
 C         3.6608698483        2.9795085658       -4.3496544811
 C         2.8104231313        1.9567933237       -3.6358567692
 C         2.6953084838        0.5498098304       -4.1770343198
 C         1.3225093497       -0.1309749158       -3.7438612866
 C         0.0976906247        0.6070063415       -3.9794407425
 O         2.3208773704        2.2104407565       -2.5447392552
 O         1.3762940501       -1.2769836153       -3.3671958954
 C         2.7687327557        0.2341059572       -5.6648709604
 C         3.8778804605       -0.3025948116       -3.5042419515
 H        -3.6654759595       -0.8468064448       -6.5170725884
 H        -5.3260221714       -1.2115042026       -5.9598122400
 H        -4.2476178499        0.0669259895       -5.2507193078
 H        -4.7417393169       -5.8709077076       -4.4131566509
 H        -3.3343860751       -5.9412513813       -5.3811469556
 H        -3.1762989616       -2.0443545815       -2.1697647348
 H        -4.3035126025       -3.3216134285       -1.6314197901
 H        -4.9059039118       -1.8103820316       -2.3140314617
 H        -5.9887727189       -4.1122926123       -3.4878409631
 H        -6.3060225969       -2.6296861153       -4.2937088031
 H        -5.6562935328       -3.9335079537       -5.2957204446
 H        -3.3377173030       -7.5636449634       -3.4283365292
 H        -2.1945860524       -6.5138587137       -2.9445391678
 H        -3.0300148402       -4.4186596353       -0.6054209447
 H        -3.5555519348       -4.6594307994        1.2008444110
 H        -5.1297874155       -6.3526563085        0.2231174994
 H        -4.5084867034       -7.6972493692        1.2433905539
 H        -5.4669120520       -8.0461554131       -0.2256836713
 H        -3.5330315084       -9.3893269400       -1.4565254926
 H        -1.9473116724       -8.2374355054       -1.7062016390
 H        -2.4566235422       -9.0819703759       -0.1817506381
 H        -0.8753961450       -4.7372449307        1.5268755020
 H        -2.0269184531       -3.4223359844        1.8313177390
 H         0.6479564696        0.6279991798        1.1702760329
 H        -0.4478198065        1.4014255042        0.1290196463
 H        -0.2386863717       -1.6243629898        2.5127369615
 H         1.3818309150       -1.4696156977        2.2714462653
 H         0.7372583159       -3.0190669497        2.2641742107
 H         1.5152011520       -2.7539440026       -1.3024468943
 H         1.6548392374       -1.0086023881       -0.6238388407
 H         2.2151591247       -2.3733838135        0.1993431980
 H        -1.0652420881        0.9062588418        2.9932817062
 H        -1.6980974794        1.9474321567        1.6727319440
 H        -4.6747701801        2.2548037809        4.6708950859
 H        -5.0892371551        0.9164119094        5.6100609105
 H        -3.7680755932        2.4650021999        2.7390873955
 H        -5.4070259527        1.6742151656        2.7401084452
 H        -4.4840449989        1.6305421884        1.2071983237
 H        -5.9916559691       -0.0405639305        2.8752361223
 H        -5.1604659096       -1.1582112310        1.6458948028
 H        -5.0517119093       -1.4887566649        3.3714975350
 H        -2.9338660889        1.1909157158        6.7745476174
 H        -3.9226188432        2.6988816260        6.9570781211
 H         0.9680529021        3.5926134009        4.0535195219
 H         2.1340540104        3.4981875102        5.3191787956
 H        -0.9892985121        4.7759052591        4.5432014164
 H         0.3781252411        5.0131247938        5.6655195925
 H        -1.2639881057        5.5312561828        6.1534647681
 H        -1.2788676790        2.3025933149        8.0804302162
 H        -0.0709966626        3.5148672172        8.2449256262
 H        -1.7276646563        4.0216891997        8.2420837861
 H         2.2958076756        0.8576536496        4.8125998020
 H         1.4803242901        1.2613274302        3.2776068016
 H         2.3102252144        4.0609665843        1.0507113361
 H         3.8304636943        4.1198491227        1.9532500165
 H         6.1480512977        2.0507651449        3.5158714491
 H         5.9351368027        3.2074212364        2.1402659234
 H         6.2341379442        1.4751139228        1.8672819810
 H         3.2191960362       -0.2447196943        2.2465569350
 H         4.8028656230       -0.1193374219        1.3670168877
 H         4.7576721165       -0.2347404996        3.2103605265
 H         3.7360748324        3.5644136359       -1.0511998721
 H         5.1083511250        4.2383466826       -0.1301769451
 H         2.7150503370        4.1548546225       -2.9499372526
 H         3.1257395076        5.1893352062       -4.3086596330
 H         2.7676103767        7.1350830853       -2.8838867090
 H         4.2630796367        7.4616542503       -3.6661852355
 H         3.9135599705        8.4136328610       -2.1512394302
 H         6.0007047590        6.8934085231       -0.3961457636
 H         6.6837931872        6.1118541494       -1.8139482343
 H         6.2822762167        7.6963102881       -1.8984693691
 H         3.5193041971        3.0782151492       -5.5378682626
 H         4.6236943563        2.5464959252       -4.2693709166
 H         0.1638950999        1.6259064998       -4.2480133870
 H        -0.4359530146        0.1137338951       -4.8214309284
 H        -0.7101194429        0.5133569120       -3.2170827580
 H         3.5478430103        0.9164583115       -6.0459735773
 H         1.8745792049        0.3225121236       -6.2381753564
 H         3.0891130398       -0.8413012110       -5.8127383948
 H         3.7989584234       -1.3212353987       -3.8134107476
 H         4.9045419170        0.0574267109       -3.7734243817
 H         3.8541490222       -0.3273598060       -2.4165379137
 Na       -0.7384137288       -2.2912857913       -2.9144778549
