155

 C        -4.3679611803       -0.9683026150       -5.6855692622
 C        -3.5030294515       -1.6775959514       -4.6922420866
 C        -4.1250522060       -2.8929740102       -3.9319511345
 C        -3.1098504350       -4.1105523574       -4.1106099210
 C        -3.7048103148       -5.5614218405       -4.2692984154
 C        -4.1614540735       -2.6804317263       -2.3777952408
 C        -5.5782753822       -3.1914199578       -4.3976453496
 O        -2.3218667829       -1.3089302588       -4.5056134068
 O        -1.9383449469       -4.0153960657       -3.8882423277
 C        -3.1785594346       -6.5627285616       -3.2394050696
 C        -3.9643780923       -6.4490199859       -1.8846590807
 C        -3.4621868659       -7.1423000800       -0.6211646489
 C        -2.3887758854       -6.3424958842        0.2381880731
 C        -2.7579703007       -4.8275426052        0.6220674280
 O        -4.9716237500       -5.7728442568       -1.8873676040
 O        -1.4485903986       -6.9575345403        0.6170955214
 C        -4.7094056361       -7.4728359891        0.4149721879
 C        -2.8503414079       -8.5574235956       -0.9388424439
 C        -1.6638370858       -3.8806788931        1.1833138713
 C        -0.6595430425       -3.4062232660        0.1510502410
 C         0.1850842695       -2.1043455754        0.5352358907
 C        -0.4402323166       -0.8303864406       -0.0729014423
 C        -0.4673852388        0.5130381327        0.7563093170
 C         0.5327509853       -2.0824620742        1.9765702777
 C         1.6725417145       -2.1449800544       -0.1565419710
 O        -0.6043250238       -3.9184757719       -0.9549030792
 O        -1.0466412847       -0.8745046126       -1.1351609644
 C        -1.4925970712        0.7792351112        1.9335113704
 C        -2.7992105833        0.0084757311        1.7607061584
 C        -4.0791861345        0.2899056968        2.5706321652
 C        -3.6407903223        0.3541172145        4.2164914660
 C        -4.2864764269        1.2454208173        5.2970196549
 O        -2.8594811474       -0.9645479965        1.0826230040
 O        -2.9322105102       -0.5484912170        4.6524731551
 C        -4.6244275045        1.6449402930        2.1560383363
 C        -4.9822802595       -1.0156406531        2.4587580585
 C        -3.2385534308        2.1280780401        6.1125247952
 C        -2.1512471539        2.8932184771        5.3420022498
 C        -0.9431928718        3.3277317835        6.2417144236
 C         0.1846953142        2.2594491744        5.7220616479
 C         1.1132098832        2.7061832561        4.5423562594
 C        -0.6981605534        4.8585614093        5.8229238823
 C        -1.1081965149        3.2799210297        7.7589480589
 O        -2.1097401616        2.9882311058        4.1473828438
 O         0.1584267210        1.1134799453        6.2159664091
 C         2.1155340515        1.6759598539        3.9882608380
 C         3.5212986124        2.2903334381        3.7580023607
 C         4.2761602487        1.8396105082        2.5334348172
 C         3.3537096875        2.3797432026        1.2819153398
 C         3.2623077372        3.8900536050        1.0478691737
 O         4.0109249232        3.1825467085        4.4904986679
 O         2.5543838353        1.6300388205        0.7181784959
 C         5.6055619598        2.5898120425        2.5083961089
 C         4.5028090395        0.3364706052        2.6395093578
 C         4.2104867349        4.3103683574       -0.0267694549
 C         3.6807562757        5.6254232854       -0.6843266366
 C         4.4642093449        6.1691791174       -1.9275217370
 C         4.7347534175        4.9576519944       -2.8983008353
 C         3.5040113540        4.4265100035       -3.6728281508
 C         3.6197107480        7.2154624559       -2.7680334111
 C         5.8910859943        6.6973005091       -1.4405107594
 O         2.6301781182        6.2375648876       -0.3212163981
 O         5.7417251190        4.3294125983       -2.9294160834
 C         3.8208287181        3.1069608007       -4.4495562589
 C         2.8893128843        1.9326702159       -3.9215985784
 C         2.8923402259        0.4228632194       -4.3920285385
 C         1.4617240438       -0.0755012543       -3.8583659352
 C         0.2850072975        0.8865895014       -3.9278074836
 O         2.3233325263        2.0667720829       -2.8280063732
 O         1.3229468354       -1.1662082409       -3.2919566727
 C         2.9879467076        0.3696681989       -5.9950312412
 C         3.9948726820       -0.3407800598       -3.7048199196
 H        -3.8324130183       -0.6041834692       -6.5896584034
 H        -5.2356543395       -1.5913284334       -6.0190400875
 H        -4.8055441114       -0.1152423408       -5.1975566880
 H        -4.8450594751       -5.6940141436       -4.2913387192
 H        -3.2753760673       -5.9610054219       -5.2347351875
 H        -3.1978641215       -2.5563889898       -1.9166554303
 H        -4.5849673481       -3.6318354529       -1.9631939182
 H        -4.8002079628       -1.8584819816       -2.0167632531
 H        -6.0384749644       -3.9388037945       -3.7515200588
 H        -6.2014306555       -2.2511980298       -4.3400837034
 H        -5.6268135436       -3.4169411628       -5.4286050502
 H        -2.9784017095       -7.6298623004       -3.7264712841
 H        -2.1053595256       -6.1745136976       -2.9431781128
 H        -3.1459754188       -4.3859847505       -0.2626645444
 H        -3.4424803553       -5.0120581803        1.4346337601
 H        -5.2167187743       -6.5580175283        0.6721354381
 H        -4.1949337756       -7.8094883498        1.3217307562
 H        -5.3312409248       -8.1807690405       -0.1265634203
 H        -3.6412475769       -9.1686978230       -1.2926392232
 H        -1.9972316409       -8.4245464547       -1.5888688323
 H        -2.5031575187       -9.1606928960       -0.0365987190
 H        -1.0502934291       -4.2711213400        2.0960618179
 H        -2.1806070919       -2.9916398574        1.5244562542
 H         0.5751213670        0.7771109252        1.1389097800
 H        -0.7128333576        1.3415592804       -0.0397781892
 H        -0.1913064742       -2.3995927961        2.7435331195
 H         0.8276483835       -1.0667214217        2.2934607458
 H         1.5104858365       -2.5386529461        2.2763643246
 H         1.5543572606       -1.9282849980       -1.2479816765
 H         2.3019673480       -1.4588443227        0.4100885892
 H         2.1927092985       -3.1678231721       -0.2051464042
 H        -1.1808138620        0.4352716546        2.8822957506
 H        -1.8172547989        1.8966661843        2.0086844359
 H        -5.0837356364        1.9608449213        4.9306696836
 H        -4.7627792532        0.5830200972        5.9831404624
 H        -3.7919588784        2.3197708061        2.4765605444
 H        -5.5485718773        1.7813967605        2.7298628783
 H        -4.8308159163        1.4767281895        1.0910430520
 H        -5.6911848443       -1.0544021020        3.2077200710
 H        -5.5192528312       -1.0464550374        1.5277492054
 H        -4.3618129623       -1.9418273812        2.4216511178
 H        -2.8236196687        1.4199183499        6.7973683468
 H        -3.7093087469        2.8637725067        6.7459719641
 H         0.5254745149        3.2039724975        3.7076422798
 H         1.7596803208        3.5044028466        4.9605014005
 H        -0.7020045322        4.9122366730        4.7760814129
 H         0.3626678781        5.1760976874        6.2821436831
 H        -1.4236636178        5.5134393568        6.2537232918
 H        -0.9115480868        2.3035521488        8.1685917745
 H        -0.3287095866        3.9373421528        8.2399554947
 H        -2.0210943983        3.5986155771        8.1857863595
 H         2.2721099074        0.7805889261        4.6189823955
 H         1.7722480616        1.2911586272        3.0754461712
 H         2.2057155706        4.1456490233        0.7466026307
 H         3.4368753069        4.3508398982        1.9809472893
 H         6.1554875015        2.1554026928        3.3834978983
 H         5.4146142414        3.5874064324        2.6704827480
 H         6.1815082086        2.4148837562        1.5905076471
 H         3.5028525536       -0.1878482848        2.6911001975
 H         4.9489024847        0.0372111346        1.7201942724
 H         5.1013479214        0.1483879114        3.5280807025
 H         4.4196518986        3.5214365058       -0.7421667775
 H         5.0999443897        4.6912207095        0.4596428813
 H         2.5968823262        4.1703693149       -3.1987150360
 H         3.2438663384        5.1085279946       -4.4734115504
 H         2.6598776438        6.8361346453       -2.9683522224
 H         4.0383537417        7.4937554303       -3.7523097823
 H         3.5196022230        8.0297032721       -2.1064658786
 H         5.8310926838        7.1134585792       -0.4458480539
 H         6.7083763362        5.9256403052       -1.4291015891
 H         6.3138650341        7.4625157421       -2.1555853251
 H         3.6854938521        3.2782491986       -5.4306137641
 H         4.9271328758        2.8515530990       -4.3470845745
 H         0.4404660541        1.7978868344       -4.5122492817
 H        -0.6972671007        0.4673816967       -4.1811432231
 H         0.0284103457        1.1885848675       -2.9528282247
 H         2.8547717596        1.3588870324       -6.4279907941
 H         2.3078764153       -0.3913710236       -6.4430922523
 H         3.9145903671       -0.0535596150       -6.2708269482
 H         4.0994620547       -1.3950803624       -3.9112964196
 H         4.8835772187        0.1634297559       -3.8934817558
 H         3.9250368938       -0.2410256462       -2.6511804665
 Na       -0.7659490518       -2.2921095481       -2.8192184201
