155

 C        -3.4935963917       -1.0535917279       -5.8814214293
 C        -3.0218779743       -1.7311413487       -4.6550408264
 C        -3.7686322910       -2.7756076884       -3.8122426003
 C        -2.8623336924       -4.1022222531       -3.8484143403
 C        -3.5092067301       -5.4424833115       -4.1981951893
 C        -3.8282706570       -2.1661756099       -2.3476477887
 C        -5.1956884782       -3.0533229748       -4.2493710867
 O        -1.8902615875       -1.3367718791       -4.3129053081
 O        -1.6944783716       -4.0493555697       -3.5811854512
 C        -3.1827836403       -6.5606460980       -3.2498921806
 C        -3.6620371792       -6.2018580012       -1.8052348465
 C        -3.1540604245       -7.1020291828       -0.6648293970
 C        -2.0957397293       -6.2879445188        0.0905496897
 C        -2.6197753592       -5.2539488853        1.0696289886
 O        -4.5349879182       -5.3499137564       -1.6909020164
 O        -0.9111788271       -6.3807195066       -0.1319975717
 C        -4.3268152417       -7.5407552036        0.3470818997
 C        -2.4982405143       -8.4527068777       -1.0542329817
 C        -1.5755304968       -4.2396263002        1.5784673471
 C        -1.1285837575       -3.2900567742        0.4216997506
 C        -0.0199478008       -2.1506671224        0.6749350025
 C        -0.4776402405       -0.7613445149        0.0358750102
 C        -0.9708072092        0.5922702271        0.7651479723
 C         0.5182029486       -2.0396643613        2.1669838096
 C         1.1148459568       -2.7609582695       -0.2490248659
 O        -1.5097788333       -3.5285551595       -0.7038303222
 O        -0.2563630826       -0.5296495525       -1.1560200786
 C        -1.9275935481        0.6003613983        1.9367017136
 C        -3.0986754421       -0.3047691377        1.6592425585
 C        -4.4259940264       -0.1335349559        2.3646533077
 C        -4.0807385504       -0.0051963427        3.8973737507
 C        -4.4826497218        1.2238534053        4.7140884720
 O        -2.9853055584       -1.1884981381        0.8600772753
 O        -3.5292544415       -0.8997703939        4.5091700543
 C        -5.0760263897        1.1567896125        1.9416329576
 C        -5.2998275944       -1.3646726210        2.2218619486
 C        -3.5180052812        1.5172270979        5.8381297453
 C        -2.3233603535        2.4794733504        5.3692840469
 C        -1.2150169464        2.9740792541        6.3402924530
 C         0.1204473278        2.0676919088        6.1287748542
 C         1.1196016259        2.6572944936        5.0336680923
 C        -0.9672055516        4.4732180044        6.0740542822
 C        -1.7405721439        2.9726147807        7.8070178280
 O        -2.3223299747        2.8825293070        4.2128859076
 O         0.1858825450        1.0203285322        6.6800291067
 C         2.4117285635        1.8225039722        4.7198870804
 C         3.6333972071        2.6809477307        4.2365050764
 C         4.3010676811        2.4823170485        2.8154170022
 C         3.2533864539        2.7847384444        1.7552861826
 C         3.1090596576        4.1683359782        1.1412796138
 O         4.1279040408        3.4283873050        4.9754694104
 O         2.4759292513        1.8653333625        1.4968455179
 C         5.6669268793        3.2492278694        2.7861871894
 C         4.7186191712        0.9781376973        2.8393194882
 C         3.5158157798        4.0861520277       -0.3222948341
 C         3.2882326566        5.4678127395       -0.9971489623
 C         4.2934686843        5.9258500214       -2.0938836315
 C         4.5692828874        4.7749764763       -3.0690332569
 C         3.6416451117        4.6089420118       -4.2441201422
 C         3.6575737936        7.2000458939       -2.7694219930
 C         5.5844033844        6.4242827869       -1.3556556202
 O         2.3394166637        6.0989303764       -0.7274053403
 O         5.3940044054        3.9007345776       -2.7837310532
 C         3.8700940630        3.1631778905       -4.8253589887
 C         3.1663334456        2.0319514545       -4.0292434332
 C         3.1252995565        0.5832218332       -4.7412535409
 C         1.6436650815        0.1202835122       -4.2530237635
 C         0.5186043717        1.0689517656       -4.4138209402
 O         2.5980908484        2.1797404357       -2.9643255954
 O         1.5029111733       -1.0012923393       -3.8611796429
 C         3.1049976291        0.5857280590       -6.2672599220
 C         4.1050627716       -0.5307149232       -4.2778746197
 H        -4.3785444360       -1.5378192997       -6.2771579397
 H        -3.8008062785       -0.0099767595       -5.6872293898
 H        -2.6997737429       -1.0837677836       -6.6133104066
 H        -4.5591495421       -5.4493445922       -4.1512927805
 H        -3.1388229142       -5.6583669457       -5.2187805513
 H        -2.8710210117       -1.9891512512       -1.7798676083
 H        -4.3935904615       -2.8744383148       -1.7869279031
 H        -4.4285147990       -1.3016604867       -2.3046344758
 H        -5.7014672835       -3.6173020039       -3.4688881597
 H        -5.8370898455       -2.1416303520       -4.3170794350
 H        -5.3013912326       -3.6887409108       -5.0914679361
 H        -3.8293249677       -7.4273594003       -3.5023734636
 H        -2.1167200234       -6.7911873224       -3.2195048526
 H        -3.3383849995       -4.6868180506        0.4585196200
 H        -3.1404025583       -5.6375739525        1.9790464269
 H        -4.7512937400       -6.6744926838        0.7631769678
 H        -4.0046766382       -8.2752443993        1.0765637210
 H        -5.0672005728       -8.0119100631       -0.3493574160
 H        -2.9308969494       -8.8441822814       -2.0236726131
 H        -1.4372040198       -8.3809012298       -1.5298964945
 H        -2.4614772462       -9.2411596869       -0.3177177878
 H        -0.6560998854       -4.5922856034        2.1673868191
 H        -2.1972772673       -3.7773138942        2.4241275542
 H        -0.1186154189        1.1884156134        1.0042684602
 H        -1.4444342420        1.0653344660       -0.0542754574
 H        -0.2454153824       -1.7181197024        2.8643773243
 H         1.1395146951       -1.2116398869        2.1948908130
 H         0.9576199471       -2.9248045233        2.5919854509
 H         0.8246167249       -3.0349032335       -1.2709168647
 H         1.8638580041       -2.0311823141       -0.3074477520
 H         1.4311824558       -3.6055010628        0.3586441148
 H        -1.4851517549        0.2874622423        2.8885770742
 H        -2.3163984914        1.6498923996        2.1046833390
 H        -4.4146561447        2.1591594533        4.1362603500
 H        -5.4462073390        1.0798884340        5.1242116397
 H        -4.4050228834        2.0339684945        1.8896227212
 H        -5.9195824967        1.3693008064        2.6308469314
 H        -5.4072980329        0.9298080374        0.9398581330
 H        -6.3600029118       -1.0824828165        2.5226361912
 H        -5.4226163760       -1.7415674206        1.1847167590
 H        -5.1522984503       -2.2116365663        2.8433415861
 H        -3.2191099886        0.5134052273        6.2376897899
 H        -4.0225194520        2.0050488065        6.7114404809
 H         0.4428174137        2.7265267610        4.1473967326
 H         1.3990365363        3.6524580912        5.3562246000
 H        -0.6702426841        4.4935968837        4.9971612539
 H        -0.1959509618        4.8667443092        6.5925073241
 H        -1.8963690528        5.1476196118        6.1615330423
 H        -1.7652988088        1.9219940063        8.0781299980
 H        -1.0036235529        3.3811361436        8.4978339666
 H        -2.7163526717        3.4107152570        8.0209130990
 H         2.6794328357        1.1689104935        5.6032193180
 H         2.1692300096        1.1478099328        3.9112803947
 H         2.1211306666        4.6414891073        1.3151715585
 H         3.8804895186        4.7554542914        1.6442651342
 H         6.4188735918        2.5565656716        3.1943148190
 H         5.7179532335        4.1279028820        3.4350880730
 H         5.9708985715        3.4053076125        1.7490158362
 H         3.8656805157        0.2656002939        2.8686383590
 H         5.4154529438        0.8666680440        2.0638609003
 H         5.3926506555        0.8025646801        3.7180428613
 H         2.8331229800        3.5209186648       -0.9247423869
 H         4.5568149787        3.7389875299       -0.4582449468
 H         2.6298393454        4.5689386642       -3.8970834208
 H         3.6928441564        5.2710627723       -5.1386556494
 H         2.7705085331        6.7485897432       -3.3296189111
 H         4.3260087885        7.7600773607       -3.4427981217
 H         3.2082487880        7.8978948540       -2.1138526661
 H         5.2740136495        6.9161305936       -0.3906782147
 H         6.2169135401        5.6381005085       -1.0849680759
 H         6.0486666341        7.2042344298       -1.9668362595
 H         3.6961862909        3.1271713110       -5.9249870898
 H         4.9225519018        2.9994147907       -4.6731014332
 H        -0.3767108828        0.6772058315       -4.8876858086
 H         0.2658231262        1.5651879294       -3.4250738833
 H         0.7666741111        1.9472636191       -5.0323895451
 H         2.4584222819        1.3370626873       -6.7025971542
 H         2.7158544138       -0.3068263861       -6.6480053521
 H         4.1141700641        0.8480398066       -6.6548157444
 H         3.9005853995       -1.5555532081       -4.6342271532
 H         5.1418765035       -0.3701116506       -4.6853088382
 H         4.1145085751       -0.5445241623       -3.1715378941
 Na       -0.3637659709       -2.1153762366       -2.8099550687
