155

 C        -3.5974842167       -1.3290719360       -6.0310710242
 C        -2.9438871643       -1.6711088255       -4.7110225886
 C        -3.6953206977       -2.6798602222       -3.8471796201
 C        -2.8799621528       -4.0220156883       -3.8552233436
 C        -3.4484920493       -5.3723350206       -4.2711718404
 C        -3.6829395936       -2.0885563517       -2.3828143719
 C        -5.1076012594       -2.8435111106       -4.2988952889
 O        -1.8502037413       -1.1831333435       -4.4503676052
 O        -1.7152652344       -4.1302530629       -3.4351409769
 C        -2.9251131408       -6.5162009714       -3.3400174085
 C        -3.5527126722       -6.2835221186       -1.8514582508
 C        -3.1162722317       -7.1384825383       -0.6326708331
 C        -2.0624400930       -6.1553464706        0.1136467100
 C        -2.4919245668       -5.1882901854        1.1593961447
 O        -4.3851968273       -5.4315485734       -1.6932493573
 O        -0.8906757020       -6.2256487885       -0.1318113309
 C        -4.2508554279       -7.4589802543        0.2908674165
 C        -2.3337633068       -8.3082816893       -1.1732541497
 C        -1.3897480439       -4.1388796065        1.5355212507
 C        -1.1542068726       -3.1968818575        0.3889303095
 C         0.0954221443       -2.1485455653        0.6510542848
 C        -0.3544149044       -0.7018295678       -0.0071364870
 C        -0.6031633695        0.4793321131        0.8856103543
 C         0.3726568195       -1.9433839979        2.1291273415
 C         1.3103679712       -2.7056225078       -0.0339011237
 O        -1.6606022458       -3.2110536811       -0.7275350594
 O        -0.3860007309       -0.5201588154       -1.2115112811
 C        -1.7684891905        0.5191077255        1.9436803560
 C        -3.0823665139       -0.3313170999        1.5550322352
 C        -4.3861433046       -0.2324349141        2.3903694492
 C        -4.1799472506        0.0060973335        3.9597802814
 C        -4.4804486851        1.2084827889        4.7651613106
 O        -3.1751687023       -1.1339624311        0.6371385008
 O        -3.8042281477       -0.9903912566        4.5438482920
 C        -5.2679902239        0.9666501029        1.8581059098
 C        -5.3176495562       -1.4861504955        2.2294786371
 C        -3.3185552402        1.4944222113        5.8413444653
 C        -2.2072931390        2.3466058559        5.2528237166
 C        -1.2796600160        2.9361106952        6.3162216997
 C         0.1003293078        2.2260947888        6.0881768638
 C         1.2362950960        2.9081850084        5.3878769725
 C        -1.2692915197        4.4950222347        6.1414003281
 C        -1.6920444114        2.5736456766        7.7555299017
 O        -2.0352586799        2.5873211761        4.0721144754
 O         0.1216103083        1.0864158271        6.5037177100
 C         2.3163964240        1.9295659693        4.9558658120
 C         3.5780862957        2.7062841041        4.5077105298
 C         4.2052933339        2.4678174202        3.0227527176
 C         3.1303764419        2.8083451731        1.8803546674
 C         3.1223267332        4.2278091963        1.2389498312
 O         3.8848408741        3.6905890448        5.2221274780
 O         2.4525035373        1.8631719210        1.5150190862
 C         5.4238535960        3.3750500983        2.8393077176
 C         4.5872949860        0.9827575891        2.7745416087
 C         3.3841523755        4.0224605406       -0.2225036330
 C         3.1237012265        5.3782157965       -0.9508678651
 C         4.1452092442        5.8396372209       -2.0234504558
 C         4.4868311438        4.6801918437       -3.0668766101
 C         3.8210850469        4.4854141871       -4.4693134932
 C         3.7522401471        7.1529321682       -2.6806699809
 C         5.5277535735        6.0221066565       -1.3299781017
 O         2.0534251349        6.0089211295       -0.8291546812
 O         5.4559360116        4.0564666287       -2.7429897058
 C         3.9406078303        3.0273796225       -5.0567622237
 C         3.1882892649        2.0305790463       -4.1684053701
 C         2.9942926247        0.5713526201       -4.8286794202
 C         1.6137655433       -0.0325910787       -4.2973659882
 C         0.3936815771        0.8758208887       -4.5444714500
 O         3.0030331732        2.2961817204       -2.9720635230
 O         1.4631923737       -1.1272732061       -3.7169924024
 C         3.0078302990        0.5949248140       -6.4131175556
 C         4.2099359793       -0.1924587233       -4.1809339589
 H        -3.7600064028       -2.1462269443       -6.7435510949
 H        -4.5597403928       -0.8526276971       -5.8468702773
 H        -2.9546307657       -0.5771373950       -6.4775433855
 H        -4.6083158362       -5.3622636828       -4.1988981684
 H        -3.1138907414       -5.6942043914       -5.2881555162
 H        -2.7490117782       -1.6922524408       -2.1021837169
 H        -4.0073075077       -2.7853355411       -1.5573067216
 H        -4.4115507126       -1.2145800636       -2.3574470315
 H        -5.7373714317       -3.4878976441       -3.7041362658
 H        -5.6641425570       -1.9319867657       -4.2454595174
 H        -5.1852342755       -3.2196044099       -5.3276944084
 H        -3.4149608957       -7.4989971336       -3.5815646674
 H        -1.8007843190       -6.4798832663       -3.4174708744
 H        -3.5100779188       -4.7696724205        0.9256332115
 H        -2.6570567770       -5.8363319606        2.0168639048
 H        -4.8659465364       -6.5644483222        0.2628294369
 H        -3.8934508041       -7.7577230358        1.2767156044
 H        -4.8377449655       -8.3318104351        0.0819068382
 H        -2.8077123446       -8.9123377780       -1.8800730506
 H        -1.5627183966       -8.0228332126       -1.8094120030
 H        -1.8946960245       -9.0007368435       -0.4091954770
 H        -0.4185317843       -4.5358898870        1.7822258125
 H        -1.6799873037       -3.6895788295        2.4365238930
 H         0.3830240600        0.6504403116        1.4504812818
 H        -0.6930933171        1.3368938612        0.1078815532
 H        -0.4913655656       -1.6679145639        2.7618701795
 H         1.0998512629       -1.1307185330        2.3980654019
 H         0.8328717531       -2.9071728958        2.3745429839
 H         1.0061826579       -2.5443201311       -1.0632703300
 H         2.2217970072       -2.0454443297        0.0514885197
 H         1.3999389989       -3.7618338323        0.2880200573
 H        -1.4367920522        0.0449170913        2.8848239688
 H        -2.0307208945        1.5385667637        2.1603591736
 H        -4.6343818154        2.1506970078        4.2585493213
 H        -5.4151787692        0.8839814068        5.3080929156
 H        -4.8007443766        1.9676176920        2.1177953272
 H        -6.2077843701        0.8462160189        2.4494385411
 H        -5.3973994097        0.8772328516        0.7407640840
 H        -5.9551086308       -1.7423484683        2.9686176420
 H        -5.8903513934       -1.4030730922        1.3549266735
 H        -4.8196444946       -2.4763204487        2.0560969807
 H        -3.0155749356        0.5788139903        6.3113526481
 H        -3.6597315320        2.1416992448        6.6259373474
 H         0.6528273081        3.3807617769        4.6055096921
 H         1.6701503707        3.6908998261        6.0704994422
 H        -1.2874408059        4.8060317083        5.1188642627
 H        -0.3090226174        4.9478823220        6.7087943221
 H        -2.0957029786        4.9329702758        6.6187174263
 H        -1.8731819665        1.4804848926        7.9342842862
 H        -0.9504226934        2.8253726714        8.5528818040
 H        -2.5774000881        3.1746118455        8.0454958798
 H         2.5266125525        1.3715948972        5.8470573228
 H         2.0511585223        1.2385861708        4.1318503210
 H         2.1121282949        4.5688603063        1.4043202546
 H         3.7465211844        5.0116516731        1.6388346935
 H         6.3851145081        2.8765256858        2.9745513234
 H         5.4333464393        4.1739304437        3.5633858826
 H         5.3400772122        3.7875459961        1.8279177212
 H         3.6265370334        0.4616324835        2.6837627269
 H         5.2459247868        0.9605484482        1.8770142614
 H         5.1727840026        0.4934523185        3.5313212401
 H         2.7414104759        3.2798314245       -0.7710706078
 H         4.3938114147        3.7590230119       -0.4329127817
 H         2.7163224552        4.7505734868       -4.4478326017
 H         4.2558738793        5.1818076222       -5.1832675682
 H         2.9281655874        7.1706439566       -3.2979584012
 H         4.6298620458        7.6011672962       -3.1602878150
 H         3.5337362288        7.8681781287       -1.8482258274
 H         5.5100492986        6.8553720932       -0.6684262760
 H         5.6970131431        5.0768074193       -0.6907877036
 H         6.3647726731        6.0198403062       -2.0643834404
 H         3.4451712606        2.9547434923       -5.9955186014
 H         5.0775828690        2.9301444270       -5.1755259607
 H        -0.4300888672        0.5431005439       -3.8708009989
 H         0.4885333264        1.9240198116       -4.3879641536
 H        -0.0758905621        0.7803567434       -5.5033405210
 H         2.0327660252        0.9128878608       -6.8124600531
 H         3.1736426937       -0.4206232697       -6.9160110807
 H         3.7157402360        1.2693168910       -6.8196670833
 H         4.1617531968       -1.2569042612       -4.3713205850
 H         5.0752765778        0.0752292161       -4.7112152053
 H         4.3690008281       -0.0077210034       -3.1355047341
 Na       -0.5442563269       -2.2076153245       -2.7070896188
