155

 C        -3.5948050289       -1.5769276277       -6.4051390037
 C        -3.0418892700       -1.8366775747       -5.0058970918
 C        -3.8194916147       -2.7017506740       -4.0336637757
 C        -2.9640164883       -3.9816816955       -3.9101297168
 C        -3.3986117713       -5.3673355422       -4.1864404227
 C        -3.9425061626       -1.8772325483       -2.7197661216
 C        -5.2914282532       -3.0287377841       -4.4881444798
 O        -1.9542304151       -1.3652499846       -4.7044547200
 O        -1.7655231304       -3.8411888980       -3.6688874128
 C        -2.7805441551       -6.4014302777       -3.2867080788
 C        -3.3604982588       -6.2245430980       -1.8607200301
 C        -2.8447439280       -7.1597165682       -0.7381102101
 C        -1.8713335095       -6.0564357739        0.0091638027
 C        -2.5236459650       -4.9283586575        0.8521549109
 O        -4.1711104476       -5.3313921011       -1.7226335132
 O        -0.7074413553       -6.0157684128       -0.2764115032
 C        -3.9356317502       -7.4474992662        0.3529782145
 C        -2.0342303326       -8.3253384629       -1.2352538541
 C        -1.5691697552       -3.9688782312        1.4690465865
 C        -0.8562582655       -3.0707091584        0.4643889001
 C         0.1119554525       -1.9431918546        0.9171414439
 C        -0.3997946579       -0.6071603622        0.3437476075
 C        -0.7507776540        0.6595562869        1.1824124872
 C         0.5049910760       -2.0123126233        2.3328149941
 C         1.5080109086       -2.1993001271       -0.0036034865
 O        -0.9256553508       -3.2665840172       -0.7160561754
 O        -0.4763642962       -0.4441088667       -0.8515055656
 C        -1.8906338614        0.3026865638        2.1511023260
 C        -3.1354411727       -0.3817052957        1.3930241491
 C        -4.4827214101       -0.3890923859        2.2079079888
 C        -4.1939236769       -0.2594901864        3.7964611216
 C        -4.3717665272        1.1484597417        4.3221250351
 O        -3.0078097224       -0.8871175417        0.3403750651
 O        -3.5685273743       -1.1273057670        4.4231760108
 C        -5.3326350781        0.7076650386        1.5864307458
 C        -5.1706678853       -1.7295200527        1.9050060739
 C        -3.5884678118        1.4215189670        5.7127786873
 C        -2.2955646414        2.1828700864        5.4690992245
 C        -1.4406631413        2.7534365985        6.6817799800
 C         0.0270224372        2.0944503727        6.2867685094
 C         1.1802673494        3.0805215873        5.8988181272
 C        -1.5309098192        4.2056642299        6.3927098239
 C        -1.8033615003        2.3803925037        8.1531893205
 O        -1.9344908216        2.4118088649        4.3390106558
 O         0.1598331643        0.8960685914        6.1278282724
 C         2.2221942333        2.4367839052        5.0822780473
 C         3.4795766030        3.2854012561        4.5153203901
 C         4.0852714592        2.7554952435        3.0495469186
 C         2.9548363159        2.7972676417        2.1169063355
 C         2.8487474684        4.0118661851        1.1871434276
 O         3.9782784838        4.1442481954        5.1459872465
 O         2.1035042366        1.9080533097        2.1543031258
 C         5.4874301105        3.3237423983        2.6208552362
 C         4.4100602518        1.2081184868        3.3036011928
 C         3.2067617083        3.7328940083       -0.3132477084
 C         2.9858113644        5.0453123331       -1.2096116128
 C         4.1786539479        5.6232482297       -2.0303215473
 C         4.6298959702        4.4739997914       -3.0554672451
 C         3.7361476274        4.4070609167       -4.3200910268
 C         3.8560182188        6.9344091303       -2.7755276325
 C         5.4442076520        5.7900649211       -1.0742560962
 O         1.9102840292        5.5818737227       -1.2812262925
 O         5.5290051575        3.7783970876       -2.7742133158
 C         3.6631103777        3.0748184425       -5.0631185562
 C         3.0625908154        1.9731767338       -4.1961465506
 C         3.0368755798        0.5230464788       -4.6896901740
 C         1.6698668188        0.0691417223       -4.1484821690
 C         0.4660284392        0.9959850131       -4.4759812890
 O         2.6871151200        2.1835978700       -3.0352839539
 O         1.6267819746       -0.9378398694       -3.4612162131
 C         3.1015541070        0.6080701116       -6.2783381380
 C         4.1724394874       -0.3002235502       -4.1889628654
 H        -2.8817461648       -1.6000030331       -7.1999794584
 H        -4.5384117445       -2.1279975497       -6.5983224463
 H        -3.9256085382       -0.5558380319       -6.3951998614
 H        -4.5251389999       -5.6452971590       -4.2999080538
 H        -3.0066979046       -5.6494267312       -5.2053876905
 H        -2.9910319435       -1.4337876432       -2.4551060756
 H        -4.2107380525       -2.5335378673       -1.8926580553
 H        -4.6150367294       -1.0157625434       -2.8381909738
 H        -5.8221141453       -3.4887411731       -3.6757618541
 H        -5.8565459181       -2.1119010685       -4.6464575159
 H        -5.5407977586       -3.5583644533       -5.3572910629
 H        -3.1380422914       -7.4442674537       -3.7226139612
 H        -1.6225384376       -6.4519982269       -3.2327685573
 H        -3.1501592175       -4.4765017415        0.0400187276
 H        -3.3020589574       -5.3473948885        1.4289818524
 H        -4.3986656670       -6.6173335374        0.7021259120
 H        -3.4127487212       -7.9955728635        1.1056990614
 H        -4.7771451315       -8.0792331815        0.1152091871
 H        -2.4650175556       -8.9048306637       -2.0175394195
 H        -1.0456888756       -8.0988655588       -1.6825582579
 H        -1.7753816413       -9.1458270345       -0.5155646641
 H        -0.8284945646       -4.6149371734        2.0415951089
 H        -1.9302841705       -3.2657182343        2.1919052700
 H         0.1394568099        1.1017695825        1.6837030873
 H        -1.1997582820        1.3676035321        0.3773470178
 H        -0.3756806787       -2.0177215581        2.9122821165
 H         1.0925758410       -1.1546140203        2.5611640007
 H         1.1590684325       -2.8116618835        2.5153723544
 H         1.2152518649       -2.2333926186       -1.0517449100
 H         2.0215896837       -1.2716952761        0.1267102124
 H         1.9738486774       -3.1272207479        0.3627602147
 H        -1.6246337719       -0.2717815210        3.0326290463
 H        -2.2924408260        1.2737928632        2.4397185915
 H        -3.9770186178        1.8557925564        3.5995228477
 H        -5.3985772696        1.4879834622        4.4984996534
 H        -4.7941275313        1.7316382936        1.5645228484
 H        -6.2768931323        0.8089756333        2.2185519281
 H        -5.7373098062        0.4174715892        0.5899190439
 H        -6.1853443722       -1.7157484814        1.7036432433
 H        -4.7436508368       -2.2985509113        1.1141298361
 H        -5.1348243956       -2.4787510535        2.7014941965
 H        -3.3094132042        0.4873884791        6.2290068202
 H        -4.2485692879        1.9562734855        6.4175953824
 H         0.7055480810        3.8931233098        5.3485541888
 H         1.6352418584        3.5726927426        6.8072173986
 H        -1.4769404275        4.3714708144        5.2745999917
 H        -0.7126460269        4.7770740251        6.8396652592
 H        -2.5027958839        4.6523836164        6.7169935836
 H        -1.7920123472        1.3248506059        8.4108723857
 H        -1.0922973584        2.8930447083        8.8972464007
 H        -2.7375155918        2.8749586889        8.3746533821
 H         2.7260513572        1.6902314833        5.6841199608
 H         1.7362311120        1.9505126300        4.2034940995
 H         1.8627045288        4.4505533571        1.2648798485
 H         3.4970052394        4.7505858447        1.6118840383
 H         5.9762436209        3.6444576780        3.5741571025
 H         5.5532970230        4.0673321219        1.9125177368
 H         6.1056798008        2.5151881837        2.1552866138
 H         3.5027160831        0.5327636576        3.5830328259
 H         4.8575380478        0.7245637178        2.4506737120
 H         5.0780921869        1.1750085465        4.1966700293
 H         2.6333261627        2.8567862963       -0.6863279872
 H         4.1767316977        3.4399162311       -0.5143962400
 H         2.6714097092        4.7029004468       -4.1765362721
 H         4.0085088335        5.2520598214       -4.9100915682
 H         2.9874838750        6.8676779044       -3.3874343098
 H         4.6865178504        7.1938454587       -3.5002040162
 H         3.7353690317        7.7747596356       -2.0715753659
 H         5.1614664409        6.2749046466       -0.1953533735
 H         5.8725781681        4.7867014343       -0.9319335037
 H         6.2251194434        6.2821095485       -1.6659579508
 H         2.9782353869        3.2271906466       -5.8222839758
 H         4.6743784255        2.6414029242       -5.4596400725
 H         0.2742538757        1.7311553441       -3.6672028533
 H         0.5409280657        1.7740487189       -5.2610382536
 H        -0.4340694823        0.5096106904       -4.6342217286
 H         2.5341039418        1.4357296162       -6.6592864804
 H         2.7145160062       -0.3415470549       -6.7413036320
 H         4.0638517713        0.5764480765       -6.6693229518
 H         4.0200429369       -1.3776088206       -4.5092822152
 H         5.1286161131        0.0493164837       -4.5335872995
 H         4.2141320007       -0.2121802008       -3.0878995097
 Na       -0.3482582309       -1.6568804216       -2.7583730088
