155

 C       -12.5566149763       -5.4958564610        1.8099233300
 C       -12.1483006053       -4.4748023019        2.9234599887
 C       -11.0342062496       -4.7908149283        3.8661298979
 C        -9.7377284199       -3.9850521814        3.3555481443
 C        -9.4879562569       -3.5771418671        1.7891778890
 C       -11.4980297814       -4.2519186857        5.2118277847
 C       -10.5907917238       -6.3392762346        3.9018004527
 O       -12.5664286822       -3.3298783657        2.8421115863
 O        -8.9697423455       -3.7012650342        4.2425355977
 C        -8.4000753445       -2.5621814303        1.4552933640
 C        -7.0910693017       -3.2498191203        1.8244139967
 C        -5.8252688677       -2.4899552665        2.3867669653
 C        -5.4106438045       -1.7775079094        1.0556050967
 C        -3.9471872679       -1.3304546462        0.9544938375
 O        -6.9758794500       -4.4903561731        1.6324261461
 O        -6.1274603616       -1.6038473357        0.0771259986
 C        -6.1218810081       -1.4617759043        3.5153723386
 C        -4.8674395855       -3.4348036957        3.0036368223
 C        -3.3076061548       -1.9410700785       -0.3365496146
 C        -2.0481220022       -1.1355610473       -0.7374449997
 C        -2.0061521255       -0.4575456357       -2.1943250798
 C        -2.3011529382        1.1116671165       -1.8961900782
 C        -3.6124345369        1.7694834486       -2.3916087514
 C        -0.6499207204       -0.6359093436       -2.8651754032
 C        -3.0324327421       -1.0202240756       -3.2169378777
 O        -1.0916952307       -0.9774573696        0.0045125842
 O        -1.3986296140        1.7885324447       -1.4526630229
 C        -3.9585681543        3.1809687577       -1.6577571176
 C        -4.1346251137        2.9853691015       -0.1870811328
 C        -4.1327212487        4.0972192418        0.8505055449
 C        -3.0545051991        3.8659906985        2.0254901157
 C        -3.2358289901        2.6500409320        3.0174567596
 O        -4.4112946880        1.8683462778        0.2441540942
 O        -2.0370545729        4.4850903537        1.9553048220
 C        -3.7991227013        5.5728767076        0.2485308673
 C        -5.5901151243        4.1098413245        1.5259137649
 C        -1.9656046951        2.3747071865        3.8724669982
 C        -1.0843064996        1.4631186008        3.1254662679
 C         0.0594822459        0.7470712414        4.0011859976
 C         1.3136252427        1.0493294540        3.1667498740
 C         2.0875495965        2.2479077790        3.6149228872
 C        -0.0334158708        1.1434215989        5.4676611698
 C        -0.2147763699       -0.7999207396        3.9326076955
 O        -1.2047430939        1.2483169415        1.9467548064
 O         1.5715021638        0.4506180553        2.1742544664
 C         2.9426563452        2.7503323172        2.4693044683
 C         2.0730961780        3.0370737323        1.2526946086
 C         2.9891449438        3.3044600967       -0.0128390786
 C         3.3110274143        1.7068147202       -0.4982818482
 C         4.7250133710        1.2578557233       -0.6072888765
 O         0.8831004929        3.0476716304        1.2044220582
 O         2.3827422210        0.9447695711       -0.6536236230
 C         2.3011584798        3.8365405723       -1.2423897312
 C         4.3341793550        4.0323602398        0.4493456147
 C         4.7967397467        0.0197226993       -1.4820086075
 C         6.1896952658       -0.5090218738       -1.6957188186
 C         6.3372696211       -1.6074034739       -2.8547930635
 C         7.2056063476       -0.9708419176       -4.0807009197
 C         8.8099703248       -0.7594843513       -3.8382897520
 C         6.9858947135       -2.7502150138       -2.1489519810
 C         4.9551040430       -2.0318344321       -3.4757202921
 O         7.1162857351       -0.2023370782       -1.0024434129
 O         6.6529323229       -0.5037742299       -5.0252140346
 C         9.5033241367       -0.8985377982       -5.2410930290
 C         9.9977478053        0.4824954978       -5.7178978936
 C        11.2375255075        0.6622130375       -6.6034859319
 C        12.5168911484        0.6197087122       -5.7788789398
 C        13.3245952586        1.8646888161       -5.6003295943
 O         9.4752063351        1.5045227941       -5.2834065554
 O        12.9150669620       -0.4382070553       -5.3625445911
 C        11.2921133744       -0.4105123360       -7.7358674720
 C        11.1031535545        2.0451601679       -7.2589941968
 H       -12.5663647258       -6.5534216422        2.0898435301
 H       -13.5360048378       -5.2793798406        1.4169378506
 H       -11.8569143960       -5.3964604274        0.9839657620
 H        -9.4054646954       -4.4485915314        1.1165167043
 H       -10.4603079195       -3.0723770009        1.5301110419
 H       -10.9013219120       -4.5661988910        6.0919578669
 H       -12.5494560066       -4.4612573588        5.3263540590
 H       -11.3963446428       -3.1597471064        5.1704141794
 H       -11.3425307445       -6.9945851529        4.4681393823
 H       -10.5751671004       -6.7602413080        2.8783059607
 H        -9.5015492704       -6.4798639536        4.2244360321
 H        -8.3428189588       -2.3580708040        0.3850266185
 H        -8.4242044195       -1.6757815751        2.0651673740
 H        -3.9583446943       -0.1624892447        0.9648221018
 H        -3.4133755145       -1.7413761215        1.8503693690
 H        -5.0902267215       -1.0230115771        3.7752244902
 H        -6.6484152137       -1.8580724133        4.3390169843
 H        -6.7405545452       -0.6097326971        3.1424811036
 H        -5.3307463158       -3.8487405718        3.8315378462
 H        -4.5431868816       -4.2231034548        2.3624600852
 H        -3.9548265938       -3.0532318388        3.5251649846
 H        -4.1944374574       -1.9566341246       -1.0542129096
 H        -3.0961975618       -2.9851517917       -0.1210375378
 H        -3.4799145185        1.7985269017       -3.4313091825
 H        -4.4200985368        1.1036529199       -2.1832076723
 H         0.0469897116       -0.6599674967       -2.1300527643
 H        -0.3959102934        0.1199708129       -3.6581110503
 H        -0.4317982913       -1.5352386958       -3.4433333610
 H        -2.7247356826       -2.0007070306       -3.4283977601
 H        -4.0709845856       -1.0237492835       -2.8849276345
 H        -3.0490223062       -0.3623671729       -4.0199210231
 H        -3.1306370968        3.9094223924       -1.8642648325
 H        -4.8680057289        3.6351208008       -1.9862827721
 H        -4.0453262005        2.8953633562        3.6926346772
 H        -3.5195474226        1.7998026202        2.3627025133
 H        -2.8469274180        5.3506387324       -0.2496724336
 H        -3.7460265247        6.3169764075        1.0073686303
 H        -4.5190799690        5.7741018910       -0.5188629760
 H        -6.3322190064        4.4477506203        0.7855232113
 H        -5.8601251458        3.1430237423        1.8967886967
 H        -5.5535797164        4.7898355685        2.3201652467
 H        -2.1505345699        1.9253991935        4.8859300244
 H        -1.3444012108        3.2651542943        4.0693778561
 H         1.4719011677        2.9671368632        4.0855368418
 H         2.7344336763        1.8260836496        4.4333037403
 H         0.0409246060        2.2421321654        5.7128010034
 H         0.5949797066        0.4376473514        6.0573941150
 H        -0.9804151515        0.7453161127        5.8400098052
 H         0.4258778276       -1.2382469595        4.7168457410
 H        -1.2474014859       -0.9757628311        4.0118683386
 H         0.1346923615       -1.2163183154        2.9383425083
 H         3.5812264465        3.5804255896        2.8071444588
 H         3.5110240569        1.8409525329        2.1731861521
 H         5.3128706982        2.0072457073       -1.1920856527
 H         5.1919414364        1.0968698460        0.3344175344
 H         2.6853378837        4.9234204361       -1.3489907776
 H         1.2058391746        3.7870935984       -1.1188429215
 H         2.8275682101        3.4220688712       -2.1197812823
 H         4.9341117417        4.2900718820       -0.4910404609
 H         4.1886882228        4.9748317389        0.9992448921
 H         4.9821018026        3.4007264660        1.0415151612
 H         4.2326754395        0.0663498518       -2.3750538293
 H         4.4182460028       -0.7975355119       -0.9372443858
 H         8.7956703004        0.2731625907       -3.5031383911
 H         9.2562262931       -1.3816750188       -3.1034984351
 H         7.5668808420       -2.4659718947       -1.3222987307
 H         7.6903175995       -3.3365640436       -2.7696584735
 H         6.1704859975       -3.4507714089       -1.7478763572
 H         4.6442232651       -1.3515268240       -4.2570038811
 H         4.9151090605       -2.9999370808       -3.9182376868
 H         4.1697039083       -1.9408021492       -2.6879401862
 H        10.3476119076       -1.6007019240       -5.3682654793
 H         8.7678966933       -1.1604473731       -6.0510718503
 H        13.6831438016        2.3721912330       -6.5175695117
 H        12.7931205774        2.6277139644       -5.0375647471
 H        14.2282044510        1.4854410014       -5.0443158327
 H        10.4059861149       -0.3671594276       -8.3940653624
 H        11.4067606720       -1.4017746825       -7.3451931179
 H        12.1808526784       -0.0582932893       -8.2175741319
 H        11.8929909788        2.4660974458       -7.8855682794
 H        10.0618615678        2.0179752061       -7.6947350176
 H        10.9484868636        2.6922394412       -6.4013810275
 Na        0.2459014929        0.8982014094        0.0238467783
