155

 C        -3.2446404610       -1.4291109703       -6.6744045626
 C        -3.0631309484       -1.7670961525       -5.1788177415
 C        -3.8591782094       -2.8667971183       -4.5294949289
 C        -2.8225413741       -4.0595228387       -4.1501726306
 C        -3.1914128098       -5.5556369129       -4.3327348857
 C        -4.2156625169       -2.2918865539       -3.2002497729
 C        -4.9943098872       -3.4494789099       -5.3394288857
 O        -2.3968977665       -1.0136833748       -4.5049264013
 O        -1.6648247327       -3.7862259575       -3.8585862396
 C        -2.4257625378       -6.4309417558       -3.3897457861
 C        -2.9151220316       -6.1100259482       -1.9757758143
 C        -2.2568664056       -6.9918778269       -0.7884908625
 C        -1.4612992191       -5.8942054580        0.1632287186
 C        -1.9073271381       -4.5308479068        0.6648684621
 O        -3.7275291678       -5.2248569709       -1.7642637114
 O        -0.3386023752       -6.2451288106        0.4257736531
 C        -3.3394385168       -7.5759092775        0.1282105612
 C        -1.2901004376       -8.0335068655       -1.3401650463
 C        -0.6399235596       -3.6203566784        1.0911105877
 C        -0.0948911039       -2.8245899988       -0.1352644935
 C         0.4667818413       -1.3769144187        0.2920259938
 C        -0.7202399384       -0.2691951840       -0.2129892680
 C        -1.1796988922        0.9963900283        0.6175343194
 C         0.7577918040       -1.2148653925        1.7273456657
 C         1.6349404982       -0.9376073899       -0.6207620680
 O        -0.0008933141       -3.2487329659       -1.2496201980
 O        -0.7948618898       -0.0579119171       -1.3937888516
 C        -2.0851734591        0.8901661779        1.8090184678
 C        -2.9337547705       -0.4042059663        1.5135133145
 C        -4.3475174226       -0.3996681203        2.2421071476
 C        -4.1226042492       -0.2105366331        3.8525925041
 C        -4.4995799079        1.1463604571        4.5413448941
 O        -2.5917661387       -1.2143224658        0.7065356378
 O        -3.5701721091       -1.1409190402        4.4350150261
 C        -5.2351384313        0.5715768164        1.4725042282
 C        -4.9972850516       -1.7818663599        2.0558166397
 C        -3.7478410003        1.2583804868        5.9879175418
 C        -2.6557147931        2.3567795050        5.9191664777
 C        -1.5450886049        2.2887312038        7.0622294244
 C        -0.2460605970        1.8514067026        6.4350255249
 C         0.4262776094        2.7271725674        5.3697525278
 C        -1.5416894198        3.7529063354        7.7015670057
 C        -1.9701014018        1.2551420359        8.2087385105
 O        -2.5617791995        3.1438976116        5.0157115269
 O         0.1340542485        0.7173079583        6.5999219856
 C         1.9333418159        2.8511104192        5.6306002890
 C         2.4819592756        3.8403186892        4.6574636071
 C         3.6446333453        3.1648593107        3.5811007397
 C         2.8279140383        2.6078562065        2.3686279110
 C         2.5586444399        3.5613060132        1.1460159683
 O         2.1564909012        4.9670631874        4.4899950006
 O         2.2778612484        1.5598305409        2.4187747810
 C         4.6490697058        4.2387021826        3.3251740488
 C         4.2922767772        1.9911422606        4.2646699021
 C         3.1701296525        3.1462462029       -0.1912963812
 C         3.0206954454        4.3889375979       -1.1689100387
 C         4.2155933523        5.2004850207       -1.6848882099
 C         4.7417487488        4.3466500251       -3.0068330384
 C         3.8133447614        4.3037082448       -4.3155852999
 C         3.8414685541        6.6873418881       -2.1092252286
 C         5.4388936129        5.2313825670       -0.5974957468
 O         1.8692982100        4.6405100761       -1.4720335426
 O         5.7177537404        3.7374296014       -2.9557363638
 C         3.9612057081        2.9022860787       -5.0375062595
 C         3.3156397415        1.8033931378       -4.1529405402
 C         2.9876590316        0.3195129303       -4.6312264060
 C         1.5059337206        0.0438184710       -4.2505012919
 C         0.4863823082        1.1239634604       -4.4938810354
 O         2.9976460484        1.9672215517       -2.9750559950
 O         1.1217685329       -1.0520821295       -3.8899890290
 C         3.1179986518       -0.0594624536       -6.1476189596
 C         3.9480726154       -0.5760079010       -3.7984050646
 H        -3.8609202256       -0.5164584710       -6.7822674851
 H        -2.3055356261       -1.1335184555       -7.1193480574
 H        -3.7427987490       -2.2528498480       -7.1616791482
 H        -4.2872480886       -5.8078196462       -4.0254847753
 H        -3.0400325052       -5.9635007007       -5.3781656703
 H        -3.3081579233       -2.2524060319       -2.7152179781
 H        -4.8591079131       -2.9793435072       -2.6686153443
 H        -4.7515407181       -1.3370815713       -3.2444340381
 H        -5.4649325630       -4.2538009081       -4.7806554008
 H        -5.7717383226       -2.7909620372       -5.5792966773
 H        -4.5645618245       -3.9130316067       -6.2806893969
 H        -2.5989197275       -7.5126359952       -3.6066415398
 H        -1.3212551038       -6.3810645701       -3.4600154531
 H        -2.3353708391       -3.8977214703       -0.1024378328
 H        -2.7330979735       -4.7032029520        1.4252001709
 H        -4.0962365824       -6.9326692418        0.3260759046
 H        -3.0654978663       -8.1195777135        1.0172065406
 H        -3.7847393927       -8.3731836730       -0.4424485462
 H        -1.5906851597       -8.7491819961       -2.0753227707
 H        -0.3584587127       -7.7459041270       -1.7727719029
 H        -1.0247823087       -8.7730347120       -0.5483549267
 H         0.1321716273       -4.3123397701        1.2575918936
 H        -0.9356837109       -2.9741686052        1.8969802313
 H        -0.1923832374        1.5709165247        0.7362437788
 H        -1.6904406630        1.7256471828       -0.0864818133
 H        -0.0128065374       -1.2002154676        2.4402937954
 H         1.3480075277       -0.3392554556        1.8629321189
 H         1.4010631406       -2.0326340793        1.8572420030
 H         1.2393573464       -0.9415984274       -1.6169181905
 H         1.9990478914        0.0424263901       -0.1942141931
 H         2.3896259108       -1.6794475537       -0.5147028535
 H        -1.5799512659        0.7511883555        2.8161682565
 H        -2.7546066480        1.6951765454        1.8761167006
 H        -4.2325487564        2.0038105803        3.8913790260
 H        -5.5916852467        1.2687826331        4.6869446991
 H        -4.9016886429        1.6286011081        1.5182214153
 H        -6.2640903217        0.6805901789        1.8444737714
 H        -5.4205180570        0.4158472783        0.3866405236
 H        -5.5396112818       -2.2098909625        2.8044105637
 H        -5.7674005924       -1.8274957671        1.3408945993
 H        -4.3196890692       -2.6388001253        1.8636082065
 H        -3.4118064431        0.2664299639        6.3325803609
 H        -4.5978722124        1.5419093523        6.6160036581
 H         0.2072510168        2.2810536838        4.3702620096
 H        -0.1014485359        3.6699716940        5.4850318999
 H        -1.2216238818        4.6055078600        7.0008018987
 H        -0.9421270390        3.7696806832        8.5797008697
 H        -2.5346289501        4.0676731365        8.0892442568
 H        -1.9082647968        0.2607085029        7.7813262759
 H        -1.3414632284        1.3738045419        9.0630435797
 H        -3.0325739012        1.4076365198        8.4988485952
 H         2.1294657752        3.1736266195        6.6708581925
 H         2.4389668631        1.8926567271        5.4759940152
 H         1.4944648458        3.6677597263        1.0644321553
 H         2.9606230926        4.5359477971        1.3277793693
 H         5.2366263567        4.5478405695        4.1784494975
 H         4.1835281981        5.1621187778        3.1029370661
 H         5.4005207791        4.0150611950        2.5537047575
 H         3.5264697072        1.1661513440        4.3702017033
 H         5.1957682166        1.5619773110        3.7729354152
 H         4.6832688936        2.0911513108        5.2766662013
 H         2.5589318978        2.4416220394       -0.7160228362
 H         4.1870505380        2.7403020827       -0.1016147154
 H         2.8438579032        4.5574594249       -3.8960380227
 H         4.1568538592        5.0810490001       -5.0462017453
 H         3.0138097268        6.7015443403       -2.7927334079
 H         4.6523520439        7.2940798596       -2.5179154572
 H         3.4436565582        7.3114449208       -1.2223208266
 H         5.0187140612        5.4957193810        0.3581367462
 H         5.6583637734        4.1267710566       -0.6233718268
 H         6.2575057493        5.8057541911       -0.9540787007
 H         3.3525402048        2.7837791305       -6.0041584019
 H         4.9590510935        2.7012652846       -5.2127272066
 H        -0.5324645710        0.7277195982       -4.3755697489
 H         0.7364325296        1.9872233399       -3.8632546305
 H         0.3903889457        1.5168962925       -5.5076845504
 H         2.5028615528        0.6413621833       -6.7036050291
 H         2.6971666108       -1.0646367391       -6.3176935472
 H         4.0958648179        0.1307047952       -6.5198103337
 H         3.9976317236       -1.6030280106       -4.2297356281
 H         4.9244061084       -0.1115833200       -4.0204382785
 H         3.7032652750       -0.5924865682       -2.7012230289
 Na       -0.8671543398       -1.6198300274       -3.0280737250
