155

 C        -3.7391824496       -1.6679256608       -7.0108640151
 C        -3.0040849631       -1.9174229157       -5.6804323197
 C        -3.6052671168       -3.1189108493       -4.7398589534
 C        -2.4168629569       -4.1689751109       -4.5347886745
 C        -2.6897783613       -5.6405659710       -4.6094615861
 C        -4.0662869549       -2.6022358322       -3.3452879487
 C        -4.8053598283       -3.8245657456       -5.5006630825
 O        -2.0244297752       -1.2756620398       -5.4314441171
 O        -1.2754648286       -3.7652116799       -4.3145920842
 C        -1.8551208471       -6.4215618536       -3.5259715223
 C        -2.2482630778       -6.1899997703       -2.0449829024
 C        -1.4500481161       -6.7694427407       -0.9053783103
 C        -0.5405811558       -5.5683838461       -0.3129345551
 C        -1.2522326989       -4.7060456614        0.8426629093
 O        -3.1879991539       -5.4569439727       -1.7570181253
 O         0.4883631059       -5.1949059025       -0.8242067208
 C        -2.4278428686       -7.2688379877        0.1648947519
 C        -0.4517232084       -7.9475129792       -1.2052266405
 C        -0.4025449002       -3.4357443351        1.1198823953
 C        -0.3202646074       -2.4075882401       -0.0907152333
 C         0.3336596775       -0.9990990443        0.0345492440
 C        -0.7310613270        0.0422542398       -0.6113714101
 C        -1.1730028195        1.2532264214        0.1536843022
 C         0.8266425545       -0.6122911791        1.6175471561
 C         1.6037973495       -0.9816243104       -0.8431483952
 O        -0.8133408344       -2.7574027258       -1.1785023668
 O        -1.1235227469       -0.1371384022       -1.7563757552
 C        -2.0836249403        1.0918952063        1.4422997151
 C        -3.1728080479       -0.0369028206        1.4570855121
 C        -4.3242935759       -0.0270171184        2.5648423582
 C        -3.6795476407        0.0620108544        4.0140306096
 C        -4.7425553464        0.1554237031        5.1649958808
 O        -3.2515341488       -0.8926034695        0.5878744043
 O        -2.4678316651        0.0679736238        4.0207773320
 C        -5.2114604448        1.1908853169        2.2882548821
 C        -5.0773351285       -1.3093902536        2.4178106396
 C        -4.3015900686        0.6236708916        6.5147137670
 C        -3.2937397822        1.8837934500        6.5245899658
 C        -2.0612584485        1.9423588195        7.4906792804
 C        -0.7167907020        1.4670846687        6.7162381662
 C        -0.2685408139        2.2146403025        5.4902136512
 C        -1.8887352135        3.3951611095        8.0074474650
 C        -2.2590808420        1.0131507322        8.8035464424
 O        -3.3013521543        2.6233366191        5.5351450979
 O        -0.1520470048        0.4684007817        7.1457882534
 C         0.8444995548        3.3716277117        5.8842110099
 C         1.4970036281        3.9828742726        4.6370537770
 C         2.9971470230        3.6130197689        4.2670035094
 C         2.6574089178        2.7520628510        2.9736733776
 C         2.2905864860        3.5294997974        1.6862933602
 O         0.8354005949        4.6700188695        3.8328756131
 O         2.6016435697        1.5098246544        3.0719229079
 C         3.7005489071        4.8954571678        3.9714599500
 C         3.7932539776        2.8209775326        5.2635662832
 C         3.4769949133        3.7674984028        0.7533061499
 C         3.1565116238        4.3590066810       -0.6670922533
 C         4.2970188304        4.9848767539       -1.6639206087
 C         4.7104015002        3.9617208567       -2.7241932249
 C         3.7335269117        3.8832230346       -3.9295049587
 C         3.7397631707        6.2186149781       -2.3324728463
 C         5.6309745055        5.4137663035       -0.9527714808
 O         2.0381191035        4.2328202610       -1.0951481096
 O         5.8522321866        3.5087609622       -2.8332985950
 C         4.0938407639        2.6392999648       -4.7072790617
 C         3.4330151898        1.3595934760       -4.1876334078
 C         3.0566335149        0.1171256570       -5.1382917362
 C         1.5535065896       -0.2016887895       -4.8562126021
 C         0.4337271457        0.6545075876       -5.4163880777
 O         3.3115327487        1.2662898113       -2.9976634889
 O         1.3804114980       -1.1347806737       -4.0804158636
 C         3.4235705213        0.4287072256       -6.6212128261
 C         4.0789616031       -1.0412421719       -4.7262058265
 H        -4.7387049762       -1.3488685452       -6.9110998028
 H        -3.1733436435       -0.9787005592       -7.6542190827
 H        -3.6337268778       -2.5949209958       -7.5664993973
 H        -3.7272784141       -5.8531075367       -4.5521588351
 H        -2.4300329558       -6.0426637398       -5.5720199307
 H        -3.4546419933       -1.6927330702       -3.0125759123
 H        -3.8993775980       -3.4387910259       -2.6757187499
 H        -5.1207259994       -2.3719737949       -3.4079480224
 H        -5.3037370632       -4.5169650694       -4.8205371149
 H        -5.5970132894       -3.0616961658       -5.6852682602
 H        -4.4560740736       -4.4078900772       -6.2759345620
 H        -1.8700639510       -7.4956986598       -3.7250794612
 H        -0.7931524906       -6.0724277643       -3.6773716014
 H        -2.2472144583       -4.4471371212        0.5191163838
 H        -1.3384637989       -5.3205845711        1.7226434844
 H        -3.3177233798       -6.5395737374        0.1520618089
 H        -2.0746984765       -7.0057295290        1.1945482409
 H        -2.5397314575       -8.3471764236       -0.0806487408
 H        -0.9798749302       -8.7767425706       -1.7596697669
 H         0.4445470412       -7.4682905416       -1.7056497474
 H        -0.0243798542       -8.5601209477       -0.4380277509
 H         0.6349910970       -3.9271284731        1.2672775815
 H        -0.5634741727       -2.8693337182        2.0577606490
 H        -0.2946395337        1.7214679900        0.3828214539
 H        -1.7820313453        1.9488506978       -0.3964856830
 H        -0.0536233925       -0.6854496664        2.2551460337
 H         1.2337581447        0.3849363011        1.7324064669
 H         1.5404131499       -1.3026734521        2.0660900554
 H         1.3421482690       -1.2699294625       -1.8947842675
 H         1.9529403618        0.0203357171       -0.7882004797
 H         2.3457112243       -1.6561651547       -0.3674885069
 H        -1.4549533579        1.1309419003        2.3418470564
 H        -2.6535676281        1.9771107685        1.5092189789
 H        -5.3841768335        0.9097636549        4.7370681391
 H        -5.2857421912       -0.8255898442        5.1023191706
 H        -4.9586483655        2.1695683922        2.7359944928
 H        -6.2659427072        1.0308993280        2.5832963545
 H        -5.2335483194        1.5902809557        1.2747848916
 H        -6.1415986849       -1.3121101123        2.8406261408
 H        -5.2136919771       -1.7243463768        1.3981699951
 H        -4.5600728517       -2.1442142196        2.7693774916
 H        -3.7115064883       -0.2104983352        6.8934032355
 H        -5.0628231836        0.7498893889        7.3112227236
 H         0.1935711970        1.4779519847        4.8580847914
 H        -1.1282110760        2.5625153151        4.8861345659
 H        -1.9531305512        4.0615296097        7.2617459747
 H        -0.8547840153        3.5886251757        8.4655999029
 H        -2.5638413080        3.6411508166        8.7955555810
 H        -1.9145573456       -0.0059372308        8.7082543919
 H        -1.6543125549        1.6272404932        9.5291629070
 H        -3.3168667092        0.9687125155        9.0660859841
 H         0.3258380308        4.1658892261        6.4194374276
 H         1.6425540739        3.0405899058        6.5877234957
 H         1.4635637412        3.0347190433        1.0952126539
 H         1.7703407564        4.4309747594        2.0635140229
 H         4.7378785634        4.6993381461        4.2441078382
 H         3.4028162508        5.6995032758        4.6521144150
 H         3.7278823166        5.1567418672        2.9271023473
 H         3.3504576029        1.8448078800        5.4148384890
 H         4.7816417353        2.6404948357        4.8841709624
 H         3.9629643134        3.3256905953        6.2554800995
 H         4.0483878144        2.8013677586        0.6276805833
 H         4.1543573527        4.3951091646        1.3104110280
 H         2.7267767920        3.9509913459       -3.5224067003
 H         3.8846516597        4.7889633349       -4.5520684871
 H         2.6689348879        6.1713316376       -2.5209470328
 H         4.2370002056        6.4983845621       -3.3088697977
 H         3.8731118732        7.0095116193       -1.6313890090
 H         5.3044973574        6.2311587183       -0.3039985586
 H         5.8995773465        4.5412674438       -0.4345819140
 H         6.2897743903        5.9378214134       -1.7314295622
 H         3.9012144312        2.7534475982       -5.7526321353
 H         5.1998759915        2.5200872416       -4.6189423019
 H         0.7689269446        1.6577794945       -5.6322912218
 H         0.1352445424        0.2912189004       -6.4175286913
 H        -0.3737785261        0.7487962707       -4.7004249546
 H         2.6523598907        0.9823823914       -7.1222217980
 H         3.3569784193       -0.5505459573       -7.1652030392
 H         4.3255392785        0.9751284151       -6.7863832314
 H         3.8568044127       -1.9457542989       -5.3461827742
 H         5.0830776152       -0.6417067400       -4.7969921822
 H         3.8827101319       -1.4191814661       -3.7012423692
 Na       -0.7826841204       -1.7181923225       -3.4666277870
