155

 C        -3.4260178445       -2.2646107588       -7.0467786647
 C        -3.0386778601       -2.1085624541       -5.5296998115
 C        -3.4210514225       -3.2692036790       -4.5245913227
 C        -2.1293436967       -4.1258865332       -4.3406748008
 C        -2.2962742720       -5.6448884623       -4.6230804385
 C        -3.8122033953       -2.8736772943       -3.0407058387
 C        -4.6186461434       -3.9909835882       -5.1803318653
 O        -2.2544062975       -1.2478590436       -5.1815501767
 O        -1.0375630880       -3.7152047915       -4.0134672393
 C        -1.6589814839       -6.6838175192       -3.6837214599
 C        -2.0325726637       -6.3754766390       -2.2530430474
 C        -1.0179632342       -6.8100015518       -1.0488582879
 C        -0.4213408611       -5.3441934177       -0.5346614620
 C        -1.3824120991       -4.4980046404        0.3381997809
 O        -3.1605117680       -5.9231986653       -2.1114067174
 O         0.7412010901       -5.0755128732       -0.6867046998
 C        -1.8517133584       -7.4940764492        0.0084799214
 C         0.2688303256       -7.6984829570       -1.2993951921
 C        -0.7928878449       -3.1162567161        0.8162357910
 C        -0.5555487023       -2.2055423276       -0.3682609552
 C         0.1159372839       -0.8452033965       -0.1595286215
 C        -0.8842080468        0.2655568737       -0.6666974386
 C        -1.0218863285        1.6614933874        0.1494376970
 C         0.3861190071       -0.6307656572        1.3716140528
 C         1.5079558083       -0.7640838077       -0.8957986515
 O        -0.9033876303       -2.5051225407       -1.5392537229
 O        -1.3884401710        0.1884476911       -1.7817402155
 C        -2.0485828692        1.4982282413        1.3384666351
 C        -2.9344321315        0.3079830455        1.3339279010
 C        -4.1465758078        0.1793707599        2.3826946826
 C        -3.4783497869        0.1872776102        3.8326060286
 C        -4.1894501421       -0.5825706463        4.9157890221
 O        -2.6773646146       -0.6299780329        0.6445181828
 O        -2.3446906533        0.6770990888        4.1105500220
 C        -5.0728967755        1.4011162494        2.3414271479
 C        -4.9724759764       -1.0128421945        2.0464260593
 C        -3.6596868933       -0.1862503864        6.2961057406
 C        -3.5430373613        1.3391199736        6.5831119610
 C        -2.3156943692        1.7864854979        7.6002723655
 C        -0.9052158434        1.4711161375        7.0085127641
 C        -0.3970834484        2.2119275042        5.7403327628
 C        -2.4332725572        3.3421330366        7.6183862653
 C        -2.4136123453        1.2398704429        9.0871555811
 O        -4.3865205749        2.1057244120        6.1996778892
 O        -0.3113728156        0.5503957422        7.4966622141
 C         0.4867036079        3.3493382444        6.0515421271
 C         1.1235363567        3.9841541848        4.8077957319
 C         2.6443402539        3.7357795269        4.3817870923
 C         2.6452707631        2.9342204126        2.9950823227
 C         2.3259204515        3.7854625889        1.7152638294
 O         0.4736833328        4.6872541514        3.9837277933
 O         2.8869480052        1.7629306983        2.8436309331
 C         3.3580926947        5.0638690692        4.1780482925
 C         3.4455511834        2.8989551895        5.4584298987
 C         3.6914693464        4.0486729799        0.9269792883
 C         3.3390809950        4.3294904661       -0.5465148680
 C         4.4113533965        4.9433303567       -1.4930697202
 C         4.6324655220        3.9228449563       -2.5801013055
 C         3.5404451592        3.6608849983       -3.6220334622
 C         3.6785063465        6.2116188128       -1.9281359037
 C         5.7496529240        5.3335168225       -0.7732478561
 O         2.1828460614        4.1358576177       -0.9701707906
 O         5.6841728702        3.2291912905       -2.4840407470
 C         3.9856008233        2.5292311472       -4.6528164656
 C         3.3554885532        1.2140758879       -4.2600501532
 C         3.1216900815        0.0358652124       -5.3227412420
 C         1.5912287976       -0.4055518112       -5.2594540672
 C         0.6613227817        0.6502126655       -5.8146719324
 O         2.9732169545        1.0756432287       -3.1311063244
 O         1.1494748520       -1.4521870502       -4.8050057594
 C         3.6719156361        0.3879677181       -6.7246533621
 C         3.7725951185       -1.2404416480       -4.6519264876
 H        -4.4682345122       -1.9588389432       -7.1391032630
 H        -2.8715179103       -1.6418147523       -7.7645960899
 H        -3.2611357668       -3.2569525495       -7.3903689171
 H        -3.4253834976       -5.9369394418       -4.7428678618
 H        -1.9516499592       -6.0433861424       -5.6336729869
 H        -2.8840441871       -2.7740835134       -2.4682232512
 H        -4.5812429192       -3.5382505377       -2.6405448949
 H        -4.3830007628       -1.9218954673       -3.0889917636
 H        -5.0690283691       -4.7179249966       -4.5046388005
 H        -5.3020746749       -3.2019880036       -5.3719991190
 H        -4.4838962967       -4.3432821348       -6.2356242637
 H        -1.9980628725       -7.7500363192       -4.0036852159
 H        -0.5170783625       -6.7653742617       -3.8358898430
 H        -2.2979828327       -4.4011217722       -0.2548495055
 H        -1.7028081896       -5.0963212797        1.2247772058
 H        -2.9150448562       -7.0754480870       -0.2173931856
 H        -1.4341271256       -7.3804185554        1.0427140567
 H        -1.8037432813       -8.6122351253       -0.2229547159
 H         0.0352195019       -8.6775473310       -1.6808493955
 H         0.8925126397       -7.2688401206       -2.1157156954
 H         0.7390238699       -7.7361098858       -0.2771728433
 H         0.0307114195       -3.1462868069        1.5662964558
 H        -1.5189873792       -2.5830058270        1.5469352212
 H        -0.1050907551        2.0833532706        0.6418921408
 H        -1.4095276448        2.4793341993       -0.4097275134
 H        -0.5095263562       -0.4286193986        1.9540780004
 H         0.9264202571        0.3123650899        1.6193313591
 H         0.9772864351       -1.4600162839        1.7302747989
 H         1.4300650487       -1.2353690576       -1.8797134221
 H         1.9235211597        0.2260638114       -0.7104576692
 H         2.1587938314       -1.4272780673       -0.3999990376
 H        -1.5074088442        1.5087396353        2.3043125771
 H        -2.6449454773        2.3662787004        1.4583783987
 H        -5.2924564158       -0.4412149130        4.7903457012
 H        -4.0159741189       -1.6146277514        4.8020335664
 H        -4.6810215201        2.4013111921        2.5921752286
 H        -5.9677636140        1.3015465831        2.9232811125
 H        -5.5897649754        1.4711638352        1.3785198204
 H        -5.9384825119       -1.0803932860        2.5676286686
 H        -5.3523870942       -0.9166951041        0.9845528954
 H        -4.5414016562       -1.9973397706        2.2870453433
 H        -2.6762529273       -0.6806781695        6.5393792984
 H        -4.3310480842       -0.5776775885        7.1087810414
 H         0.1758060483        1.4830167993        5.1134448583
 H        -1.2700654114        2.5500974972        5.2297850945
 H        -2.4960007406        3.8085598647        6.6800672353
 H        -1.6242274382        3.7254280277        8.2184817403
 H        -3.4054478271        3.6847074665        8.0816848247
 H        -2.3797485321        0.1304292759        8.9693846771
 H        -1.5795376348        1.6039789720        9.7132169791
 H        -3.4441475447        1.4808825428        9.4481409018
 H        -0.1177225171        4.1191426660        6.5079257446
 H         1.2217793080        2.9296854694        6.7267337650
 H         1.6742835979        3.4165808510        0.8625522333
 H         1.8429649963        4.6931630606        2.1370475535
 H         2.5483612915        5.8374757981        4.2581282128
 H         3.7652042681        5.1031565357        3.2376862456
 H         4.0871525991        5.2309717153        4.9992221238
 H         3.0550414645        1.8718393437        5.5073544955
 H         4.4099452801        2.9176802275        5.0766295512
 H         3.4752322805        3.3239909414        6.4422812614
 H         4.2626371872        3.1590780640        1.0729122314
 H         4.3516918116        4.8304038432        1.3757317952
 H         2.5904348921        3.4939253395       -3.1461100939
 H         3.3576941240        4.5917755272       -4.1328220682
 H         2.7460939785        5.9663612109       -2.3818956717
 H         4.2909606958        6.7080557836       -2.6557652108
 H         3.4830183223        6.9696083576       -1.0986613018
 H         5.4200716333        6.0871633259       -0.1072925717
 H         6.2382873206        4.4646107164       -0.2959598707
 H         6.3777888982        5.5353106735       -1.6119988759
 H         3.8889109143        2.7975261335       -5.7959608586
 H         5.0510486058        2.4035071672       -4.4535641025
 H         0.1266493482        1.0352198755       -4.9610242241
 H         1.2092784156        1.4806396052       -6.3994411751
 H        -0.2068939371        0.2881483432       -6.2624963389
 H         3.0512239284        1.1753209603       -7.2004610896
 H         3.7803134064       -0.4886337699       -7.3770185935
 H         4.6698173723        0.7793741367       -6.6441515391
 H         3.4681066357       -2.1700767032       -5.1619309777
 H         4.8490374897       -1.2402121986       -4.8037889986
 H         3.5075916886       -1.2538696134       -3.5709928877
 Na       -0.7855219338       -1.4669419927       -3.4473568968
