155

 C        -3.3821360776       -2.3936277184       -7.0206233871
 C        -3.1028133055       -2.1349560728       -5.5480097096
 C        -3.4906544868       -3.3342635000       -4.5292653972
 C        -2.1468035040       -4.2919713310       -4.4226276541
 C        -2.2103549502       -5.7917230584       -4.6564488598
 C        -3.7763840633       -2.5845139330       -3.2199123179
 C        -4.6998088062       -4.1452728510       -5.0011055915
 O        -2.5384876956       -1.1279080468       -5.1134980122
 O        -1.0833512814       -3.7978440015       -4.1277841433
 C        -1.1787172510       -6.5341284912       -3.6159094260
 C        -1.7153705797       -6.4356899796       -2.2125192009
 C        -0.8741664378       -6.8463079754       -0.9688988542
 C        -0.4884437103       -5.4081353650       -0.4975173060
 C        -1.5205924235       -4.4556048191        0.1394633211
 O        -2.7954482305       -5.9108010377       -1.9850639655
 O         0.6593288335       -5.0046172842       -0.5662912007
 C        -1.7647215815       -7.5422977341        0.1180952550
 C         0.4479544739       -7.7171491048       -1.4892655553
 C        -0.9648399261       -3.2096239907        0.7206070020
 C        -0.6262236104       -2.2475427795       -0.4739957811
 C         0.0927200406       -0.8864549903       -0.1331539641
 C        -0.9046237655        0.3331262681       -0.7441270136
 C        -1.0672067554        1.6693578666       -0.0749659509
 C         0.3435192405       -0.5797557992        1.3293581419
 C         1.4160783552       -0.8463582517       -0.8435790977
 O        -0.9176003228       -2.4423774800       -1.6119094521
 O        -1.2185726573        0.2452510719       -1.9153936947
 C        -2.1597672514        1.6152601946        1.0423386747
 C        -2.8470637510        0.3223599254        1.2711486089
 C        -3.9919965749        0.2770350681        2.3777235303
 C        -3.3122559487        0.1797424979        3.8521733075
 C        -4.0332841518       -0.5516187512        5.0171441185
 O        -2.5314919410       -0.6402207286        0.5760529811
 O        -2.2698450383        0.7111065229        3.9950428062
 C        -4.7592474355        1.6341007697        2.5872004274
 C        -4.7858460044       -0.9433849632        2.1713445704
 C        -3.4105269357       -0.3313545292        6.3527959424
 C        -3.5743634908        1.1735618162        6.6663393379
 C        -2.4452813626        1.8678974144        7.5744180514
 C        -1.0439244017        1.5701625865        7.0186336500
 C        -0.5832226217        2.2173933397        5.6449657922
 C        -2.7060218589        3.3755534923        7.6859033795
 C        -2.8094070061        1.1283826946        8.9552404486
 O        -4.5846212250        1.7450631791        6.3358395729
 O        -0.4440262781        0.5753488162        7.4113645710
 C         0.4923967073        3.3014206621        6.1212929809
 C         1.0905092456        3.8831952394        4.8215017382
 C         2.6983471732        3.8394903380        4.5514718390
 C         2.6393169760        3.1543338164        3.1422631891
 C         2.3714350703        4.0481894978        1.8909851679
 O         0.4603533875        4.3336062880        3.9606257028
 O         2.6907270202        1.9520195726        3.0520606471
 C         3.3592403143        5.3151920610        4.7286582238
 C         3.3580767098        2.7817676653        5.5188108890
 C         3.5171924865        3.9144433396        0.9010803247
 C         3.1607402308        4.3456980278       -0.5312998086
 C         4.3138338408        4.9033373849       -1.5358918860
 C         4.6944156878        3.7210032722       -2.6166702694
 C         3.6833376988        3.6262156666       -3.7705840935
 C         3.8582316485        6.2109420824       -2.2404260345
 C         5.5761440531        5.1437045641       -0.6618950859
 O         2.1217429306        4.0287160799       -1.0513320964
 O         5.7642128205        3.1801355588       -2.5771623377
 C         3.8066487790        2.4492206560       -4.6428202645
 C         3.2294015421        1.1551009566       -4.1133949198
 C         3.1654786473        0.0240219540       -5.1759316420
 C         1.6503347233       -0.2902595327       -5.3076814534
 C         0.5891353694        0.6390941840       -5.8457607872
 O         2.8000097262        1.0981807729       -2.9699320888
 O         1.2123122247       -1.3424405854       -4.8789960122
 C         3.7073352205        0.3924728234       -6.5923660463
 C         3.9746779671       -1.1723412775       -4.7286098900
 H        -4.4286393772       -2.2743809276       -7.3578456586
 H        -2.7897100609       -1.7083050617       -7.6032707098
 H        -3.0001637261       -3.4230269923       -7.3042331651
 H        -3.1259729059       -6.2600911991       -4.7255600299
 H        -1.8059844889       -6.0204655622       -5.6233765194
 H        -3.0797826939       -1.7728193164       -3.1374120552
 H        -3.7133466519       -3.2482439973       -2.3152200456
 H        -4.8218363127       -2.2775548027       -3.2768999186
 H        -5.0020355176       -4.8540189994       -4.2361237157
 H        -5.5328024933       -3.5470758805       -5.4318919344
 H        -4.4173681159       -4.6445688971       -5.9040774693
 H        -1.1721169819       -7.5473253311       -3.8512989448
 H        -0.1892414822       -6.2171707119       -3.7690875078
 H        -2.2958754788       -4.0932789456       -0.5758266346
 H        -2.0429423061       -5.0709680709        0.8815553994
 H        -2.6321459003       -7.0568596988       -0.0222749443
 H        -1.2207948745       -7.4292294912        1.0126084362
 H        -1.9186969573       -8.5608148080        0.0798944021
 H         0.1935140483       -8.1110635787       -2.4610324826
 H         1.1449108593       -7.0285660499       -1.8054725645
 H         0.7835473555       -8.3374402834       -0.6886309143
 H        -0.1238592507       -3.3560362442        1.3512470398
 H        -1.5857255844       -2.7707149417        1.4234792325
 H        -0.1163966735        1.9905699487        0.3510670162
 H        -1.3944432115        2.4788265389       -0.8017981696
 H        -0.5139004518       -0.6568294239        2.0260613001
 H         0.4963951343        0.4921407519        1.4870828387
 H         1.2329324813       -1.1252549991        1.7569076915
 H         1.1309409929       -1.2173229524       -1.8000054950
 H         1.8175823663        0.1587323462       -0.7997574126
 H         2.1856382898       -1.6023626410       -0.5072117617
 H        -1.8394330013        1.9313404428        2.0625347415
 H        -2.9878183843        2.3890531987        0.8160490154
 H        -5.0811620795       -0.2965810747        5.0362179889
 H        -3.9895189951       -1.6575319593        4.7079238253
 H        -4.3590480802        2.3489053056        3.2576125612
 H        -5.7178839173        1.3578630067        3.0454162432
 H        -5.1027744835        2.0513605612        1.6491930047
 H        -5.5960637236       -1.1654376638        2.8703920299
 H        -5.2312795957       -0.9557828273        1.2133203688
 H        -4.1627376596       -1.8376715348        2.3205157514
 H        -2.3764066052       -0.5834835286        6.3736550031
 H        -3.8972033127       -0.8269710444        7.2046072506
 H        -0.1585863174        1.4938393826        4.9680861281
 H        -1.3825249800        2.8859828485        5.2098477602
 H        -2.6356381633        3.8173016874        6.5882574848
 H        -1.9761092701        3.8451193961        8.3288906161
 H        -3.6942016644        3.6330034764        7.9642918762
 H        -2.3283869653        0.1551669871        8.9941502507
 H        -2.3072083587        1.7583330518        9.6781472347
 H        -3.8760816183        1.1627077155        9.1361329372
 H        -0.0426733109        4.0877800779        6.6881702024
 H         1.2048710752        2.7789103638        6.7692123010
 H         1.5142325819        3.6730773282        1.4236546652
 H         2.1932989337        5.1176565466        2.1142139766
 H         2.6372237993        6.0974422784        4.8505676498
 H         3.8318458853        5.4342436737        3.6861140148
 H         4.1717582494        5.2302244150        5.4381140524
 H         2.8455352928        1.8619638803        5.3443840458
 H         4.4242717950        2.5926170754        5.1456940716
 H         3.2640317880        3.1009494654        6.5572014972
 H         3.8423847415        2.8347286307        0.8956613566
 H         4.3834594436        4.3738831081        1.3383283931
 H         2.6652847506        3.9015410680       -3.4115119533
 H         3.8302393880        4.4707558363       -4.4787918066
 H         2.7435024224        6.2344554008       -2.2707066968
 H         4.3046224858        6.4288054916       -3.2266504090
 H         4.0794764768        6.9991061312       -1.5946815751
 H         5.2138623545        5.7974111064        0.1361773442
 H         5.8151045622        4.1422221152       -0.3643260499
 H         6.3830354244        5.4913188052       -1.2753726089
 H         3.3644704506        2.6679551289       -5.5379673563
 H         4.9163051305        2.4652601563       -4.8312828373
 H        -0.1353733481        1.0004197618       -5.0796446818
 H         1.0199546115        1.4272068632       -6.3760840053
 H        -0.1813874068        0.1155642523       -6.5064680689
 H         3.1889850207        1.1949172389       -7.0728189247
 H         3.5772967896       -0.4844003483       -7.1874572155
 H         4.8023450805        0.5520361076       -6.6629624229
 H         4.0042915964       -1.7981960422       -5.5710244412
 H         5.0212043469       -0.9935827714       -4.5147450900
 H         3.5333017469       -1.6452288683       -3.9083513305
 Na       -0.7629638866       -1.2059350391       -3.6138282011
