155

 C        -4.0281126132       -2.4929151960       -7.1344335470
 C        -3.4096851485       -2.3740083065       -5.7452971300
 C        -3.4425983098       -3.6199662093       -4.7602507416
 C        -1.9287046744       -4.3108328747       -4.6915020404
 C        -1.7610290802       -5.8022878228       -4.7535397905
 C        -3.7260658235       -2.9871596697       -3.4121204686
 C        -4.4992991024       -4.7654502433       -4.9144924864
 O        -2.7092132627       -1.4141019622       -5.4769684656
 O        -0.9730076676       -3.5525287946       -4.7165333191
 C        -0.7335205849       -6.2999665992       -3.6813706558
 C        -1.4269089954       -6.3759457453       -2.2898903933
 C        -0.5233754394       -6.6345372665       -0.9508233400
 C        -0.2111319952       -5.2144713777       -0.2436955419
 C        -1.4706340573       -4.4030741500        0.2856793867
 O        -2.6388670683       -6.2436326975       -2.2048591537
 O         0.9633019314       -4.9060159037       -0.0904080688
 C        -1.2022529391       -7.4427247257        0.1525726257
 C         0.8874004347       -7.2680898594       -1.4380455217
 C        -0.9447539160       -3.0341940961        0.8733892768
 C        -0.7173108779       -2.1224864637       -0.4342904024
 C         0.1852930966       -0.8504902477       -0.2314591606
 C        -0.7975964229        0.4251915986       -0.8899986547
 C        -1.0768024077        1.7572374131       -0.1317264341
 C         0.6301029282       -0.6187454686        1.2456355470
 C         1.3093843660       -1.0018316992       -1.1842182176
 O        -1.0649695400       -2.5546079317       -1.5445363841
 O        -1.1012209133        0.2613486486       -2.0515736550
 C        -2.1885735837        1.7818736404        0.9483487210
 C        -2.9934122279        0.4794993186        1.0052303146
 C        -3.8969527667        0.3414818702        2.2925677935
 C        -2.9749896206       -0.0661547240        3.5531998639
 C        -3.6784028851       -0.7819213224        4.6926974828
 O        -2.8974389039       -0.3974000731        0.1097036859
 O        -1.7838977903        0.0854008274        3.5726641459
 C        -4.3965370877        1.7829689818        2.8129039018
 C        -4.9973475872       -0.5996426955        2.0069131439
 C        -3.0022846142       -0.3659757670        6.0266057242
 C        -3.7631714272        0.7925035128        6.6078296143
 C        -3.0354300920        1.6162082401        7.7539295851
 C        -1.5042767533        1.6936429014        7.3258262432
 C        -1.1447599771        2.6381792527        6.2054370225
 C        -3.6313281985        3.0830250433        7.8252658108
 C        -3.1953546939        0.8928291206        9.0672407917
 O        -4.8495297834        1.0619592998        6.1350004695
 O        -0.6561652500        1.0785792933        7.9370899682
 C         0.3576695785        3.0471863321        6.0905388436
 C         0.9305548990        3.9656724361        4.9743829147
 C         2.4766677478        3.9395459615        4.6469512944
 C         2.8113823431        3.3609740208        3.2899778489
 C         3.3021641922        4.2016196498        2.1830901298
 O         0.1856372544        4.6522623546        4.2706174202
 O         2.6716066200        2.1634166448        3.0524744378
 C         3.0018712559        5.3752914397        4.9427922321
 C         3.2340443897        3.0528753629        5.6392889846
 C         3.4806060164        3.3507606217        0.8167685691
 C         3.1511909681        4.2573180891       -0.4668116810
 C         4.3465447939        4.8115275794       -1.3914358860
 C         4.5223598324        3.8056190861       -2.5854674535
 C         3.6675252978        3.9562135800       -3.8680487235
 C         4.0549301349        6.2228669848       -1.8943918498
 C         5.6989994383        4.8636901213       -0.5880277238
 O         2.0212388670        4.5124570936       -0.6928677929
 O         5.3557488114        2.9814899183       -2.6086742087
 C         3.7560678559        2.6878357888       -4.7630700686
 C         3.2770204626        1.3721475624       -4.1576886557
 C         3.1476248822        0.0995029272       -5.1711956740
 C         1.6536563687       -0.3438991535       -5.1360087919
 C         0.7084604188        0.4540811926       -5.9981496343
 O         2.9284274079        1.2161069399       -3.0102323629
 O         1.2316444458       -1.1380569318       -4.3085621923
 C         3.5633620587        0.2809228318       -6.5767969130
 C         3.9547126789       -1.1035696430       -4.4983541526
 H        -5.0694856401       -2.2414301002       -7.2106362923
 H        -3.4401919951       -1.7250814552       -7.7028421154
 H        -4.0232828003       -3.5039167222       -7.5230869379
 H        -2.6767179420       -6.2037972244       -4.4469660473
 H        -1.5125608290       -6.1954899964       -5.7423301305
 H        -2.7993441516       -2.5072965622       -3.0406703641
 H        -3.8970843798       -3.7093740478       -2.6900524383
 H        -4.4087194550       -2.1710151389       -3.4985743889
 H        -4.4881978368       -5.5796757730       -4.1844939144
 H        -5.5333172441       -4.4023957639       -4.8136430104
 H        -4.3518847664       -5.2607705027       -5.8351969094
 H        -0.4660074873       -7.2428518482       -4.0852440882
 H         0.0848055016       -5.5819384958       -3.6777158042
 H        -2.0994858632       -4.3003488911       -0.5436066229
 H        -1.9725507256       -4.9078628498        1.1151015549
 H        -2.1934349659       -7.0642711218        0.3427193277
 H        -0.5827123941       -7.3251708748        1.0624959131
 H        -1.2644670481       -8.4375348104       -0.1994553931
 H         0.6310156701       -8.1813826113       -2.0310870528
 H         1.4220266707       -6.4030965756       -1.8442239246
 H         1.4486018151       -7.5929034753       -0.5733882912
 H         0.0701745802       -3.3156355735        1.2769578206
 H        -1.5315110135       -2.7087290828        1.7550568391
 H        -0.1541506078        2.0363653022        0.2854142034
 H        -1.3906753471        2.4353743978       -0.8991388949
 H        -0.1194775339       -0.3094539959        1.9321737420
 H         1.4648149501        0.0499512519        1.2669032934
 H         1.0143750516       -1.4681208360        1.7870224636
 H         0.9941047132       -1.3470827068       -2.1835528870
 H         1.6073593801        0.0099408423       -1.3769689197
 H         2.0873526678       -1.5571968868       -0.6821479640
 H        -1.8391785982        2.0476892110        1.9681495490
 H        -2.9370777741        2.4442635463        0.6971526205
 H        -4.8090330647       -0.6668917912        4.6306223346
 H        -3.5051582815       -1.8367860899        4.6428962453
 H        -3.5880327940        2.4731737672        3.2519535860
 H        -5.1746297522        1.5865332765        3.5792173288
 H        -4.8489725230        2.3027535043        1.9605560662
 H        -5.7556291899       -0.6021822717        2.8783729359
 H        -5.5275721198       -0.3184306274        1.0721931004
 H        -4.5917459739       -1.5526395010        1.7049607458
 H        -2.0502385484        0.1282341742        5.7791580321
 H        -2.9196658126       -1.2037748993        6.6892379831
 H        -1.2653078088        2.0743666081        5.2472760012
 H        -1.7389057164        3.5314209405        6.1766094698
 H        -3.8085583384        3.5119580126        6.8432015348
 H        -2.9057187824        3.7387647009        8.3217988829
 H        -4.4638526382        3.0969322629        8.4385465642
 H        -2.7231320645       -0.0528251146        8.9701564946
 H        -2.7795219481        1.4225341161        9.9440115451
 H        -4.2528098062        0.8123329318        9.2227369721
 H         0.5982084420        3.5334725662        7.0567130168
 H         0.9274695009        2.0998147383        6.1583053365
 H         2.5842681851        5.0457612209        1.8905589311
 H         4.1996233169        4.7388236782        2.3267198518
 H         2.3354885093        6.0205301972        4.3607134346
 H         4.0641752324        5.5046917026        4.6805453560
 H         2.9788740961        5.5337117029        6.0206987905
 H         2.9861240412        1.9758619242        5.6220029031
 H         4.2681365859        3.2151241859        5.2761865774
 H         3.2647640051        3.5845932506        6.6775526472
 H         2.8910285289        2.4887308159        1.0372379082
 H         4.5583786682        3.1032176011        0.7497035121
 H         2.6240128367        4.2027781059       -3.6246556020
 H         4.0004212759        4.8124543139       -4.5285830065
 H         3.0595117780        6.4151940164       -2.2140381645
 H         4.7069345741        6.4020522628       -2.7689693381
 H         4.3178715585        6.9058144131       -1.0825561507
 H         5.4916769605        5.2614192106        0.4023643497
 H         5.9681625091        3.8284227299       -0.6008002738
 H         6.3805690620        5.6673974726       -1.0189523929
 H         3.1124399510        2.8511770149       -5.6822380111
 H         4.7398411701        2.6820511634       -5.0830822916
 H        -0.3680294937        0.4297639423       -5.8546746591
 H         0.9812266316        1.4843362821       -5.9147716598
 H         0.8942016086        0.2838255457       -7.0668814919
 H         2.9453854592        1.0175803409       -7.0600727801
 H         3.3237497687       -0.6820137501       -7.1253372271
 H         4.5415768653        0.5646227062       -6.7554974528
 H         3.6155886744       -2.0746830984       -4.8624695947
 H         4.9533040917       -0.9296386523       -4.7104424553
 H         3.9007590957       -1.1508878832       -3.4247112314
 Na       -1.0047242419       -1.3097275678       -3.7716178380
