155

 C        -3.9990829387       -2.3171657410       -6.8796286875
 C        -3.1748001687       -2.6714274841       -5.5848312044
 C        -3.0952005947       -4.2039187460       -5.1067334455
 C        -1.6172683061       -4.6952976622       -4.6347704106
 C        -1.4386291718       -6.2666018862       -4.4721540750
 C        -4.0465599433       -4.4197129039       -3.7954621208
 C        -3.5532537043       -5.1556146315       -6.2363363993
 O        -2.6140782358       -1.7969697318       -4.9477558350
 O        -0.6869833164       -3.9043884299       -4.7160987551
 C        -0.2939600810       -6.5117483758       -3.4389067404
 C        -0.7059537669       -6.7250475742       -2.0162996306
 C         0.3665652492       -6.7247275322       -0.8703726462
 C         0.4942291453       -5.2374495385       -0.3131119858
 C        -0.6792454213       -4.6384042326        0.5742080713
 O        -1.8565209301       -6.5439791669       -1.7050030828
 O         1.4522677510       -4.5622214172       -0.4939320002
 C         0.0061850997       -7.6389733067        0.3159078064
 C         1.8476550446       -7.1473553698       -1.1831224674
 C        -0.5217254475       -3.1330886928        0.7522407074
 C        -0.2663751745       -2.2884529503       -0.5120135956
 C         0.4556754663       -0.9106176212       -0.5419452318
 C        -0.6682810461        0.1575869068       -1.2025301149
 C        -0.9218356706        1.5349322179       -0.5571209559
 C         0.8256640277       -0.3442226941        0.8569851168
 C         1.7119994304       -0.9060128147       -1.4298999616
 O        -0.4735647965       -2.8275507037       -1.5862637451
 O        -1.0953729480       -0.1516884995       -2.3023970604
 C        -1.8538862891        1.5355117311        0.7894992953
 C        -2.8466897067        0.4279972251        0.7425168522
 C        -4.0240190842        0.3470266542        1.7002337228
 C        -3.4286428371        0.4432406692        3.1617527319
 C        -4.1708286054       -0.4167868942        4.1954786559
 O        -2.5608657967       -0.5055988232       -0.0325898780
 O        -2.5232585066        1.1972678710        3.4065229643
 C        -4.8316613513        1.6794082742        1.4910687507
 C        -4.9585140893       -0.9104999433        1.2501733233
 C        -3.4536820030       -0.1978782167        5.6348110608
 C        -4.0949293856        1.0398423788        6.2549990325
 C        -3.4346306231        1.2043848010        7.6202257861
 C        -1.9481490587        1.6477559240        7.5857731615
 C        -1.4321943035        2.4800095275        6.2832526663
 C        -4.1792823616        2.3602157957        8.3393324974
 C        -3.6281881677       -0.0932867728        8.5161159703
 O        -4.9839684554        1.6234364396        5.6991076454
 O        -1.1930239290        1.3586825430        8.4842993040
 C         0.1055295506        2.5131723465        6.1218303117
 C         0.6157878358        3.9304550486        5.3652399616
 C         2.1520703856        4.0014042103        4.9644578179
 C         2.2513815977        3.2897234788        3.5216022030
 C         2.2369246036        4.1446351076        2.1914156690
 O        -0.2646758655        4.7136633977        5.0459775091
 O         2.3182788098        2.0923270098        3.3237550579
 C         2.5117280219        5.4971815255        4.9452804776
 C         2.9919134000        3.2683034062        6.0060842972
 C         2.4463090684        3.2927336080        0.8878838467
 C         2.7296895331        4.2078972962       -0.3178045928
 C         4.3171686902        4.4996757870       -0.7619602702
 C         4.6363794369        3.7272105639       -2.1477728393
 C         3.9709426324        4.3807739269       -3.4206050793
 C         4.5350900777        6.0354340211       -1.1065566580
 C         5.4106594689        4.3165574280        0.3501136969
 O         1.8802023374        4.7696144847       -1.0016960243
 O         5.4111104104        2.7312332215       -2.2299114349
 C         3.8771039767        3.4498387073       -4.6535178259
 C         2.7447937619        2.4083918972       -4.3613662338
 C         2.8170776831        1.0220480441       -5.1016914685
 C         1.5076279339        0.2716968469       -4.9254813735
 C         0.1736348122        0.8607182648       -5.3173736450
 O         2.0499827352        2.5719526126       -3.3842186141
 O         1.5353879522       -0.8838953600       -4.5293298723
 C         2.9197338146        1.3458008855       -6.6187333802
 C         3.9968711366        0.2247865951       -4.5030556592
 H        -3.4169771762       -1.6834279023       -7.5146293475
 H        -4.5020833719       -3.0593169617       -7.4991074414
 H        -4.7107538641       -1.5924534939       -6.4643884428
 H        -2.3319370883       -6.6515099209       -4.1772213809
 H        -1.2533422502       -6.7124427082       -5.3978266582
 H        -4.8904131053       -3.7465966156       -3.7196990964
 H        -3.5207835109       -4.3726097777       -2.8276469124
 H        -4.6763615216       -5.3053974397       -3.9520604580
 H        -3.6352746342       -6.2231461060       -6.0076506200
 H        -4.5296419701       -4.7068447054       -6.5130412485
 H        -2.9342776335       -5.1702823574       -7.0819767422
 H         0.3634319026       -7.2941734615       -3.6984982699
 H         0.3868389506       -5.6999763266       -3.4702539642
 H        -1.5470978676       -4.7337793782       -0.1384698624
 H        -1.1514934947       -5.1129992236        1.4150291102
 H        -1.0478747560       -7.4116390360        0.5551295476
 H         0.5938541848       -7.4805462516        1.1977010987
 H        -0.0206908161       -8.7254280397        0.0543720297
 H         1.9748409971       -8.2737993367       -1.1960909544
 H         2.0630623914       -6.6848524694       -2.1723766266
 H         2.5983630295       -6.7428193100       -0.5314297458
 H         0.3624579836       -2.9623359130        1.4028235681
 H        -1.2590626062       -2.7439128290        1.3867585909
 H         0.0037826202        2.0983003958       -0.2474260655
 H        -1.5063920599        2.0490246058       -1.2912494772
 H        -0.0832276033       -0.3162895596        1.4371660340
 H         1.2233017816        0.6508285621        0.7071915743
 H         1.5555435497       -1.0127625303        1.3083493002
 H         1.5379207849       -1.3537659498       -2.3919128425
 H         1.8765668628        0.1630969380       -1.4559625448
 H         2.4827312592       -1.4632512086       -0.8859297269
 H        -1.2011045444        1.4099654215        1.6695105950
 H        -2.4436415971        2.4554795255        0.8559863243
 H        -5.2020061153       -0.1074033728        4.0033878077
 H        -4.0812070210       -1.4989094690        3.9649508871
 H        -4.3551930405        2.4234387470        2.1129399771
 H        -5.8073449157        1.3528167704        1.8810045546
 H        -4.8234642331        1.8307683282        0.4231801552
 H        -5.8469816357       -0.7240711235        1.8118613798
 H        -5.1729821610       -0.8539394441        0.2452957537
 H        -4.3413892876       -1.7785804192        1.5250010321
 H        -2.3799760197       -0.1972236746        5.5512576827
 H        -3.5286022548       -1.1404749568        6.1373184199
 H        -1.8530929715        2.0459560090        5.3601378103
 H        -1.6927450425        3.5166201585        6.3795998134
 H        -4.6748916680        3.0694036740        7.6036889721
 H        -3.4425745019        2.9027419175        8.8870467890
 H        -4.8543967288        1.9506439062        9.0764641010
 H        -3.1104375871       -1.0068116372        8.2391861686
 H        -3.1743349265        0.1399241459        9.5300822190
 H        -4.6735454848       -0.2951372551        8.7817282145
 H         0.5511403752        2.4327703433        7.1343881684
 H         0.4289454558        1.6032022791        5.5935033618
 H         1.3208306385        4.6644010183        2.2766341778
 H         3.0560219840        4.8505030897        2.0927636484
 H         1.8145469643        6.0963809127        4.4366110421
 H         3.5072221476        5.7550436013        4.4652289050
 H         2.4260197874        5.9211653193        5.9202187043
 H         2.8888897837        2.2399716886        6.0843607732
 H         4.0389081989        3.4540360710        5.8107590760
 H         2.8919260468        3.6902693023        6.9848812151
 H         1.4244948261        2.9043384768        0.6951547339
 H         3.2732595030        2.5558545426        0.9998443479
 H         2.9650297794        4.8598296472       -3.0895742972
 H         4.5864252377        5.2431801896       -3.6246973511
 H         3.7454052434        6.5292699192       -1.6458518920
 H         5.3015822014        6.0862039476       -1.9078758977
 H         5.0056286151        6.5944288621       -0.3071355694
 H         5.7833424401        3.3228864856        0.3509225838
 H         6.2821811034        4.8548441762        0.0967753145
 H         5.1856083621        4.5266221741        1.3981974067
 H         3.7733483509        4.1159099722       -5.4889809477
 H         4.7548088058        2.8319563314       -4.8326596656
 H        -0.3230760747        0.2910431068       -6.1605526238
 H        -0.4189761364        0.9977540135       -4.4734811413
 H         0.3249892237        1.9059622084       -5.6594174954
 H         2.2976473746        2.2099596542       -6.8677749639
 H         2.6265232868        0.4059997945       -7.2185209746
 H         3.9092520596        1.5302603812       -6.8976844446
 H         3.6382749979       -0.7795436030       -4.1565269385
 H         4.9167525613        0.3583894592       -5.0407664722
 H         4.1544572006        0.6345449794       -3.4910671731
 Na       -0.5533237520       -1.7368457347       -3.6591488529
