155

 C        -3.7853610877       -2.2455078236       -6.8501024638
 C        -2.9458729182       -2.7039345053       -5.5451141862
 C        -2.8837364724       -4.2058981934       -5.0171390918
 C        -1.3910770306       -4.8125493359       -4.7777860845
 C        -1.1678750641       -6.3367346724       -4.5076091778
 C        -3.7798929969       -4.2511045678       -3.7343002368
 C        -3.4454058657       -5.1563328353       -6.1786912302
 O        -2.1909226603       -1.9355495789       -5.0541346603
 O        -0.4193943823       -4.1017786134       -4.7898353065
 C        -0.0631353216       -6.3621264987       -3.4505458111
 C        -0.5496054259       -6.6647808587       -2.0469761038
 C         0.5158645004       -6.7760307991       -0.8471628158
 C         0.6882074898       -5.3369253110       -0.2382508085
 C        -0.5234285234       -4.6499334047        0.4224899611
 O        -1.7238697167       -6.9941703371       -1.8456492851
 O         1.7886985298       -4.9054450696       -0.0403784243
 C         0.0124825822       -7.6805570288        0.3117440400
 C         1.8702549970       -7.2038360747       -1.3356028759
 C        -0.2997019441       -3.1945267341        0.6476480693
 C        -0.0270629050       -2.3859400286       -0.5707640843
 C         0.3738660896       -0.8993902657       -0.3915395726
 C        -0.6535820342        0.0346308146       -1.1748534816
 C        -0.8846729476        1.5183383414       -0.6982608548
 C         0.4802196668       -0.3570083488        1.0645596382
 C         1.7574227158       -0.7199555852       -1.1606927261
 O        -0.3465068690       -2.9100475915       -1.6434178961
 O        -1.0466484459       -0.3028358019       -2.2868750580
 C        -2.0900388519        1.6936479847        0.3581004677
 C        -2.7953186155        0.3786028976        0.6178361503
 C        -4.0698179621        0.4692415833        1.4483698488
 C        -3.6129220566        0.6640178999        3.0560647838
 C        -4.1896407151       -0.3058086061        4.1360105721
 O        -2.2940921730       -0.7248350210        0.3013047189
 O        -2.8029512284        1.5580853777        3.2433479372
 C        -5.0407368058        1.6111655564        1.0387625172
 C        -4.9161649350       -0.7836315022        1.3169647653
 C        -3.4568787846       -0.0788901545        5.5000217698
 C        -3.9859615933        1.1241247619        6.2913846247
 C        -3.4264908590        1.3773874990        7.7658260412
 C        -1.8838997298        1.4608091382        7.5271360457
 C        -1.3121494501        2.7099928986        6.8313515305
 C        -3.9583725877        2.7451366743        8.2594859541
 C        -3.6218505850        0.1516753697        8.7266702414
 O        -4.6410157833        1.9106372745        5.6979306067
 O        -1.1167267203        0.5731743008        7.8141861647
 C        -0.0614942525        2.4584443000        6.0123113030
 C         0.3513155238        3.6606211963        5.0891200396
 C         1.8851970996        3.8532510480        4.8779343923
 C         2.0403508150        3.2594115835        3.4900963077
 C         2.2286743560        4.1733339722        2.2329894234
 O        -0.4837441869        4.4772461858        4.7311039138
 O         1.9560915355        2.0218618157        3.3286160621
 C         2.1679208748        5.3986404199        4.9399194893
 C         2.7689927991        3.2058997053        5.9523925648
 C         2.4506385016        3.2983629427        0.9687433752
 C         2.7978073996        4.3872934738       -0.0920555594
 C         4.2284975176        4.6665030456       -0.5413966316
 C         4.3281801060        3.7899386209       -1.8630696164
 C         4.0398303139        4.4258951765       -3.2156831488
 C         4.4281118600        6.1661055215       -0.6879776605
 C         5.3521384577        4.2441355930        0.4561511910
 O         1.8177745228        5.0014559806       -0.5652817717
 O         4.3835469883        2.5462430064       -1.8182501929
 C         4.0995245354        3.4162707935       -4.2786921073
 C         2.8516021817        2.4319675227       -4.2243981568
 C         2.6946785628        1.1423362700       -5.2245768207
 C         1.3634065466        0.4369965943       -4.8633838935
 C         0.0876699696        1.1803549855       -5.0954849015
 O         1.8535723345        2.7699660994       -3.6165973587
 O         1.3652985351       -0.7640074337       -4.6378422809
 C         2.4794358656        1.6838602789       -6.6972883113
 C         3.7936752200        0.0924505934       -5.0833399448
 H        -3.3924048010       -1.2915022647       -7.2185373639
 H        -3.7692370805       -2.9583387758       -7.6272894974
 H        -4.8333671061       -2.0185032768       -6.5666635259
 H        -2.0836847471       -6.8118452602       -4.2007971557
 H        -0.8186934312       -6.8898014310       -5.3574927240
 H        -4.7471974131       -4.5856643571       -3.8626197440
 H        -3.6537404138       -3.3215477585       -3.2048959397
 H        -3.4182423615       -5.0699705245       -3.1353057718
 H        -3.5304396919       -6.1969245099       -5.7897762970
 H        -4.4906494344       -4.7834127187       -6.4449980666
 H        -2.8715762454       -5.1852135891       -7.0493402489
 H         0.5349191526       -7.2731326569       -3.6128616069
 H         0.5990737723       -5.4836964258       -3.4121560718
 H        -1.4286609867       -4.7084947194       -0.2564683880
 H        -0.9872639105       -5.1200770830        1.2943385773
 H        -0.8158749245       -7.3008602428        1.0181369981
 H         0.8297995021       -7.6950148655        1.0762157263
 H         0.0243420959       -8.7409000549       -0.1033521395
 H         1.7851070245       -7.8806895829       -2.2492063592
 H         2.5322364452       -6.3488498980       -1.4507243819
 H         2.4045357351       -7.9753957819       -0.7890889727
 H         0.5076931416       -3.0660534400        1.3341904780
 H        -1.1163972794       -2.8489160530        1.1512911707
 H         0.0661152730        2.0159417661       -0.3644246737
 H        -1.2514993160        2.1918323319       -1.5250059119
 H        -0.4594301174       -0.1079532743        1.4184683863
 H         1.0562469035        0.5339667850        1.0487158587
 H         1.0944036578       -1.0073289329        1.6212290943
 H         1.4906854041       -0.9804191787       -2.1605083497
 H         1.9423923204        0.3583504204       -1.1742082667
 H         2.5919836964       -1.2686927216       -0.6508001222
 H        -1.9142869303        2.0262315829        1.4831964872
 H        -2.7425693830        2.4171551151       -0.1056233315
 H        -5.2521332614       -0.0996442579        4.3605028029
 H        -4.0944732496       -1.2658501470        3.5988312260
 H        -4.3996992688        2.4083286276        0.6751626716
 H        -5.7017802025        1.9136922574        1.8885116559
 H        -5.6880354575        1.0143899466        0.3771710401
 H        -5.7677761249       -0.7138010953        1.9089736850
 H        -5.3132132949       -0.6998133089        0.3751141440
 H        -4.1205990741       -1.5789009498        1.3399996587
 H        -2.3633969159       -0.0224114678        5.4320076129
 H        -3.5816794020       -0.9818516755        6.1134806538
 H        -2.0471116364        3.0993731954        6.1003661151
 H        -1.0176194621        3.4089305649        7.5935861328
 H        -3.3801630101        3.5731128624        7.9801192948
 H        -4.0782889896        2.7644422385        9.3497346045
 H        -4.9940408940        2.8817591891        7.7057193780
 H        -3.0264134517       -0.7065535815        8.6545129403
 H        -3.5878235355        0.5039280291        9.7867504073
 H        -4.5700797344       -0.2531381431        8.5004502886
 H         0.7245221651        2.3716370101        6.7873241968
 H        -0.0856176252        1.4895336137        5.5024570415
 H         1.4357803461        4.8199979139        1.9564835793
 H         3.1144946770        4.7631372435        2.3276262916
 H         1.6310796662        5.9834322317        4.2533783285
 H         3.2607299165        5.7126139474        4.7711012624
 H         1.8543812475        5.8540374725        5.8387667150
 H         2.8122312383        2.1210091445        6.1733616680
 H         3.8764844189        3.4316409111        5.7180103870
 H         2.5820986318        3.6835947967        6.8829094022
 H         1.4659211070        2.7842869666        0.7484486164
 H         3.3250075239        2.6372598458        0.9948955680
 H         3.0762894805        4.9966733753       -3.0162046462
 H         4.7232454419        5.2769110060       -3.3655290643
 H         3.7703413378        6.6908369313       -1.4020081535
 H         5.4700250767        6.4290068688       -0.9243096330
 H         4.2000933314        6.5594575692        0.2640175296
 H         5.1621844019        3.3113185058        1.0201782894
 H         6.3410666665        4.3166700484        0.0218179783
 H         5.4765582664        4.8957796840        1.2984182842
 H         3.8797470096        3.9312788024       -5.2348583037
 H         5.0690378476        2.9470051727       -4.3533133688
 H        -0.4472847272        0.9208378437       -6.0256487946
 H        -0.4853178204        0.9667681102       -4.2580957203
 H         0.3103386602        2.2663564441       -5.1119688753
 H         1.5200664935        2.1185546369       -6.7365896722
 H         2.6675108693        0.8500471242       -7.4235506010
 H         3.1694059946        2.4688039490       -6.9153385868
 H         3.7736695215       -0.5370830261       -5.9830017578
 H         4.6840826328        0.6788075478       -5.0749319583
 H         3.7369216190       -0.5512376711       -4.2458535549
 Na       -0.2541008589       -2.0023876001       -3.8379870557
