155

 C        -3.7699902127       -2.5000566114       -6.8955316361
 C        -2.6804495229       -2.8615824318       -5.7558558284
 C        -2.5395024787       -4.2649740330       -5.0982708003
 C        -1.1128529623       -4.7881199458       -4.8154940421
 C        -0.9899722353       -6.2636138600       -4.3263617893
 C        -3.0965950651       -4.0187546209       -3.7026359728
 C        -3.3297481805       -5.3536278614       -5.9438662461
 O        -2.0448697580       -1.9173517115       -5.3643367727
 O        -0.0960022205       -4.1471859075       -4.9675570563
 C         0.1825301673       -6.5786443915       -3.3966574001
 C        -0.3351972107       -6.7686634314       -1.9837204779
 C         0.6388528425       -7.0618813162       -0.7825796652
 C         0.7800879169       -5.5885281337       -0.1943776715
 C        -0.4481287578       -4.8099545015        0.2761407489
 O        -1.5460835379       -6.6003161128       -1.7730364000
 O         1.8876788372       -5.0735750965       -0.0258384008
 C        -0.0299775709       -8.0817690557        0.1896937633
 C         2.1396930946       -7.4457348277       -1.2191150746
 C        -0.2537605519       -3.3989293847        0.6871897766
 C         0.1385437754       -2.4743084924       -0.5505340015
 C         0.4756929498       -0.9860463741       -0.3006603044
 C        -0.6225655892        0.0086331986       -0.9830612744
 C        -0.8849637229        1.3871356295       -0.3702761227
 C         0.6255769114       -0.6715858468        1.1578660255
 C         1.7944530302       -0.6113658005       -1.0985685364
 O         0.2466179881       -3.0017486293       -1.6691680645
 O        -1.0584307160       -0.3008806517       -2.0963329300
 C        -2.3961418265        1.6008741814       -0.1032083838
 C        -3.0211387281        0.3497253945        0.5338263298
 C        -4.2076315183        0.4684272436        1.4953996246
 C        -3.6664290823        0.7595981924        3.0016566858
 C        -4.2878684557       -0.2072557949        3.9920476179
 O        -2.4289786895       -0.7221638753        0.3431240048
 O        -2.9173109972        1.6733707058        3.3315648646
 C        -5.1503932813        1.7207412757        1.1492619889
 C        -5.1166375618       -0.9062768589        1.3010869477
 C        -3.6456548507        0.0762997415        5.3270190595
 C        -4.1420539517        1.2701865056        6.2194634247
 C        -3.5234828931        1.4483112951        7.6362137262
 C        -2.0258259323        1.3657666726        7.3619855616
 C        -1.1103819391        2.6485091902        7.2038954705
 C        -4.0253523550        2.7870448496        8.3892568627
 C        -3.8876855811        0.2246527930        8.4883728861
 O        -4.9474239303        2.1149462192        5.7844697617
 O        -1.5364311873        0.2774573664        7.3760829146
 C        -0.1009754356        2.3336991139        6.0770774508
 C         0.3342209691        3.5604502268        5.2996652545
 C         1.9105608697        3.8542361038        4.9111654130
 C         2.0217298686        3.1313967839        3.5068348611
 C         2.4040659703        4.0789113075        2.3673527222
 O        -0.4531454365        4.3581520621        4.8537969239
 O         1.7468352297        1.9246963159        3.3395429585
 C         2.0812808916        5.4602751505        5.0293928982
 C         2.8130629747        3.1951943541        5.9564301085
 C         2.1844648187        3.6478445431        0.8849512346
 C         2.6749753519        4.7525156756       -0.0218636216
 C         4.1939514302        4.6786588514       -0.5229978909
 C         4.0906891018        3.6770955571       -1.6753540614
 C         4.1306886911        4.2705203835       -3.1335658459
 C         4.4631378064        6.0786634195       -0.9741021354
 C         5.2460984390        4.2914478252        0.4803009657
 O         1.8755032536        5.4882560046       -0.5348515740
 O         4.0306051770        2.4984841561       -1.4767468866
 C         3.9539414464        3.1535792921       -4.0974038225
 C         2.5988094435        2.4871848906       -4.2764567826
 C         2.5756079465        1.4774555327       -5.4572407930
 C         1.3171742671        0.6687977537       -5.0981413929
 C        -0.0028512359        1.2887731395       -5.3711308769
 O         1.6413850296        2.5903718740       -3.5629681107
 O         1.4261785516       -0.4318582289       -4.5930819232
 C         2.3346669749        2.2845207568       -6.8491899601
 C         3.8449526602        0.5990924767       -5.4771232424
 H        -4.0324292889       -1.4100723254       -6.9432714485
 H        -3.4894376461       -2.8006649749       -7.8683140495
 H        -4.6866700044       -3.0480149414       -6.5961884751
 H        -2.0146083324       -6.5374712765       -3.8872104513
 H        -0.8100350174       -6.8136593310       -5.2933293274
 H        -3.6637171338       -3.1216433182       -3.7457050034
 H        -2.2879612217       -3.8095568090       -2.9533568564
 H        -3.6837042951       -4.8678688982       -3.3501170030
 H        -2.9896925686       -6.3686457140       -5.7814792649
 H        -4.4179663162       -5.4682900796       -5.6333473556
 H        -3.2743742909       -5.0532456572       -6.9531757515
 H         0.7121285864       -7.5488960972       -3.6527599702
 H         0.8514281015       -5.6469522396       -3.3016327240
 H        -1.3259600220       -4.8626563878       -0.4077198695
 H        -0.7061709481       -5.3691584068        1.2094841469
 H        -1.1392561003       -7.8649375151        0.2855897287
 H         0.4087812365       -7.8989960832        1.2239240343
 H         0.1353263600       -9.1368736379       -0.0503227584
 H         2.4534849677       -8.5377771709       -1.3637956876
 H         2.2675042984       -7.1787808264       -2.2693192415
 H         2.9689471642       -6.9309311299       -0.7164897620
 H         0.6318391217       -3.4581311623        1.2896193196
 H        -1.0314615098       -3.0281144473        1.2428334293
 H        -0.2745197957        1.6801334112        0.4943770128
 H        -0.5488212867        2.2290107204       -1.1025771899
 H        -0.3058659151       -0.7272710670        1.7500242071
 H         1.0845793311        0.3281900629        1.2508976621
 H         1.4468950721       -1.3849859700        1.4714240349
 H         1.4630746832       -0.7081534733       -2.1232291242
 H         2.1194503906        0.4104911291       -0.9288406349
 H         2.6395851530       -1.2781851923       -0.7595993927
 H        -2.5971858659        2.5761810933        0.5365045237
 H        -3.0460794729        1.7460156302       -0.9687338981
 H        -5.3674430837       -0.0371118951        3.9173064148
 H        -4.0769269211       -1.2157012030        3.6443220583
 H        -4.8570767582        2.4400072188        1.9042331945
 H        -6.1705619580        1.3606009602        1.3337128542
 H        -5.0082178135        2.0598206381        0.1037397842
 H        -5.7781294378       -0.7833979035        2.1556168539
 H        -5.6064248866       -0.9235260540        0.3310103021
 H        -4.3690651361       -1.7660172594        1.3761698676
 H        -2.5745281961       -0.0418962780        5.0780441352
 H        -3.8999386933       -0.8032065964        5.9599012862
 H        -1.7399083981        3.5537448561        6.9289914773
 H        -0.5808255639        2.8114248585        8.1427335234
 H        -4.2520224834        3.5312860270        7.6900684573
 H        -3.2029258946        3.1896484748        9.0250415683
 H        -4.9759324424        2.6516632090        9.0296643259
 H        -3.8028100259       -0.7172833134        7.9841119159
 H        -3.1909170436        0.2096106059        9.3704639466
 H        -4.9144092281        0.1912267047        8.8432237334
 H         0.7230700078        1.7859095242        6.5782081339
 H        -0.5103422175        1.6480892172        5.3311474817
 H         1.8801387037        5.0331525920        2.4408865297
 H         3.4553903798        4.2637085880        2.5522259269
 H         1.2787926910        5.9899690939        4.5539374861
 H         2.9891672906        5.9871681036        4.6096290566
 H         2.1876806163        5.7407348936        6.0354733895
 H         2.8106312303        2.0723067289        6.0779806564
 H         3.9099172113        3.4709061482        5.7653459645
 H         2.5417932007        3.5078978642        6.9401629678
 H         1.1423181584        3.4878718109        0.5007202128
 H         2.6820588542        2.6890669925        0.8128944807
 H         3.4699200149        5.1528192031       -3.2451106481
 H         5.1438243208        4.7154768736       -3.2887771762
 H         3.7099695198        6.4911613928       -1.6336755526
 H         5.4943985371        6.1369341365       -1.3472903333
 H         4.3710341858        6.7353525820       -0.1948163418
 H         5.1810059008        4.7460108329        1.5194194083
 H         5.2742320803        3.1602573585        0.6890445319
 H         6.2506121843        4.5802075032        0.2492457049
 H         4.2093212338        3.5658206048       -5.1165822440
 H         4.5829810903        2.3044302418       -3.8500933606
 H        -0.6186410232        0.7034361149       -6.0354168574
 H        -0.4539819685        1.1701462293       -4.4053965832
 H         0.0717735289        2.3052195302       -5.7302153745
 H         1.6557220818        2.9953228446       -6.4915560492
 H         1.7946690730        1.6782736106       -7.5918149067
 H         3.2247872063        2.8363922605       -7.2073344445
 H         3.6091417431       -0.2521050539       -6.0996369676
 H         4.6862038489        1.0551081025       -5.9788818670
 H         4.0886001175        0.3318791593       -4.4934476646
 Na       -0.2322850169       -1.8694050856       -3.6575577424
