155

 C       -12.8434002321       -5.7506444366        1.8299219759
 C       -11.9209828894       -4.6198507327        2.5173036039
 C       -10.6747236559       -4.9820458158        3.4342005657
 C        -9.4914094999       -3.9195690220        3.2616681205
 C        -9.2721046210       -3.4078463110        1.8657769806
 C       -11.2644969640       -5.0550825516        4.8332461180
 C       -10.1272606199       -6.4180678002        3.0960272805
 O       -12.2465379850       -3.4499238819        2.5152765158
 O        -8.6968180154       -3.6211878112        4.1353889143
 C        -8.0399425168       -2.4081135122        1.6844943280
 C        -6.7563341467       -3.0695690644        2.2219831593
 C        -5.5850315277       -2.1540841380        2.8056375787
 C        -4.9475588263       -1.4830748623        1.5772422143
 C        -3.5326090685       -1.9816080165        1.1120807154
 O        -6.5679531522       -4.2736835658        2.0904265267
 O        -5.6057445877       -0.6633676966        0.9258358285
 C        -6.1992171267       -1.0073363926        3.6952625915
 C        -4.6270075906       -3.1490271462        3.5503117072
 C        -3.3977179382       -1.2825296361       -0.3161586043
 C        -2.0309542755       -0.9071270603       -0.8157835028
 C        -1.7870186647       -0.1720455162       -2.2606246429
 C        -2.0138014581        1.3384778688       -1.8757110592
 C        -3.2982070673        2.0154292517       -2.4214040933
 C        -0.3583661185       -0.3359091406       -2.7372627334
 C        -2.8116844616       -0.7848211627       -3.3014760734
 O        -1.1008035731       -0.8209436919       -0.0640734932
 O        -1.2497350075        2.0210564764       -1.2108806452
 C        -3.7219277896        3.2467904488       -1.5996065498
 C        -3.9162633361        2.9141033609       -0.0165786122
 C        -4.1827125286        4.0925068606        0.9981590688
 C        -3.3632628507        3.6830796595        2.2958581553
 C        -3.7439051163        2.6378931615        3.2886805896
 O        -4.0465101805        1.8195542449        0.4232741848
 O        -2.3951932760        4.3815861516        2.5198004215
 C        -3.8544958837        5.5057674587        0.6012576141
 C        -5.7430295507        3.9421712052        1.2690163024
 C        -2.5450013406        2.2556138872        4.1555765134
 C        -1.3550241152        1.7507053433        3.3214153643
 C        -0.2362275176        0.9261702947        4.0427253791
 C         1.0693964210        1.1247314848        3.3195973629
 C         2.2572513777        2.0069136305        3.7690369932
 C        -0.0690766569        1.2629645796        5.5362197584
 C        -0.7097305899       -0.6144939955        3.8900920711
 O        -1.3644117622        1.8433030543        2.1192770992
 O         1.1963786208        0.4832332956        2.2802780095
 C         3.1528054635        2.1063208040        2.4876864101
 C         2.5126267389        3.0515710973        1.4377323416
 C         3.1699736202        3.0498933474        0.0533503445
 C         3.4165725799        1.5547517352       -0.4265757254
 C         4.8693465892        1.1441286680       -0.8823474768
 O         1.6700975419        3.8236143099        1.7333056007
 O         2.5334268532        0.7611867976       -0.4600675636
 C         2.1362880603        3.7822125116       -0.9718059912
 C         4.3937764054        3.9395086918        0.1275729940
 C         4.7460126627        0.0535114049       -1.9284072956
 C         6.0423385508       -0.8759203697       -1.9560776849
 C         6.1938884095       -1.7727563284       -3.2167499979
 C         6.9772888825       -0.7893477528       -4.1543687879
 C         8.3629951949       -0.3719226570       -3.8573413450
 C         7.0938069056       -2.9694451976       -2.8140018031
 C         4.9976922917       -2.1498516789       -4.0468166418
 O         6.7748285216       -0.8934633563       -1.0036754096
 O         6.5141404914       -0.4183440972       -5.2005931707
 C         9.3366087474       -0.7304358561       -4.9450416142
 C         9.6927846530        0.4650356569       -5.7992794404
 C        10.6780851321        0.2522121131       -7.0757138604
 C        12.1180922140        0.1661058115       -6.3383260545
 C        13.1122548003        1.2378059072       -6.4902377894
 O         9.4376542875        1.5917928476       -5.5192885199
 O        12.2671561839       -0.8059909749       -5.6118606987
 C        10.3353825746       -1.0335955092       -7.7930735491
 C        10.4597295465        1.4213850228       -8.0968536777
 H       -13.1579428140       -6.5973772988        2.4241832032
 H       -13.7332441520       -5.2584662082        1.4733345734
 H       -12.3342369002       -6.2091871049        0.9852540114
 H        -9.2616902777       -4.2051168020        1.1953287794
 H       -10.1902514456       -2.9457695643        1.4846409581
 H       -10.6184527385       -5.5830483138        5.4808546581
 H       -12.1348408375       -5.7157553112        4.8317554653
 H       -11.6421883273       -4.0782041440        5.2273679067
 H       -10.7986807278       -7.2299181445        3.5639288866
 H       -10.0245746402       -6.4968670698        2.0191297344
 H        -9.1539890445       -6.5659709435        3.6696219100
 H        -7.9488346139       -2.1349919502        0.5985380227
 H        -8.1034690821       -1.3978005012        2.2382545451
 H        -2.7150379626       -1.7297395711        1.8042963118
 H        -3.4156681480       -3.0166600809        0.9440665235
 H        -5.5370565820       -0.4936907310        4.4375907488
 H        -6.9691246674       -1.4738163486        4.3367579107
 H        -6.6177174653       -0.1743576499        3.0912443791
 H        -4.9444566911       -3.6815021934        4.4338352517
 H        -4.5261415218       -3.9991570806        2.9455513809
 H        -3.6909601209       -2.6235223679        3.7451171592
 H        -4.0386681606       -0.3833474967       -0.4217467139
 H        -3.7463879487       -2.0199080937       -1.1052397482
 H        -3.1908891719        2.3598415471       -3.4785294106
 H        -4.0769902874        1.2394234530       -2.4470648319
 H         0.4381430561        0.2144369555       -2.2589020653
 H        -0.2973263366        0.0843929292       -3.7402421889
 H        -0.1382124477       -1.4486022695       -2.8062967927
 H        -2.5060382151       -1.7950755384       -3.4825405721
 H        -3.7671630226       -0.7930472334       -2.8100570089
 H        -2.7158548105       -0.3822761454       -4.2725596222
 H        -2.8983931758        3.9685268762       -1.8780769581
 H        -4.7068508780        3.5738028597       -1.9939057736
 H        -4.4699241429        3.0973966074        3.9988767394
 H        -4.1353320363        1.7589903880        2.7943938115
 H        -2.8273445364        5.6125546383        0.3993518831
 H        -4.0132595845        6.0757472458        1.4876890311
 H        -4.5748145049        5.7319857628       -0.1489476168
 H        -6.2107513743        4.2187429146        0.3451387247
 H        -6.0712324984        2.9791590556        1.5376531577
 H        -6.0745844680        4.6477917626        2.0313006329
 H        -2.8706312811        1.5127693088        4.8636487961
 H        -2.1134155863        3.1229851030        4.6436960890
 H         2.0650751412        3.0381693168        4.2732236676
 H         2.7557790488        1.4413639770        4.5198899842
 H         0.1562594108        2.3033536607        5.8083111205
 H         0.6577744841        0.5815272274        5.8666935470
 H        -1.0579333987        1.1206765083        6.0825616791
 H        -0.1051253713       -1.2900556539        4.5460761831
 H        -1.6447411848       -0.8434407811        4.3888540109
 H        -0.6621514324       -0.8078447402        2.8038903306
 H         4.1513095324        2.4495729410        2.8678397955
 H         3.3213593298        1.0831836055        2.0816989782
 H         5.5289217503        1.9364093930       -1.3124171696
 H         5.2924639126        0.5996294928        0.0448432545
 H         1.6795551963        4.5811380198       -0.3879888918
 H         1.5137576543        2.9187668316       -1.3732362442
 H         2.6494785809        4.1544974492       -1.8792290593
 H         4.7175470370        4.2939629180       -0.9308451036
 H         4.1347238818        4.8165472313        0.6640703837
 H         5.2066077814        3.3872887912        0.6922905162
 H         4.6234946052        0.5215989634       -2.8999159206
 H         3.7798266581       -0.4801290153       -1.8199553192
 H         8.4202020572        0.7148640450       -3.7273117233
 H         8.7500291288       -0.7832446920       -2.8865685320
 H         7.7593611692       -2.7488289122       -1.9690432810
 H         7.6520231560       -3.4375696325       -3.6710452154
 H         6.4378259523       -3.7632518049       -2.4222054859
 H         4.7499582698       -1.3597157805       -4.7338804306
 H         5.1832714420       -2.9996275738       -4.6914126649
 H         4.0726529398       -2.4723421006       -3.5611669704
 H        10.2912910614       -1.0822935255       -4.5671694925
 H         8.8383137487       -1.3818801486       -5.6313915456
 H        13.8029620795        1.1173437702       -7.3518939913
 H        12.6519673971        2.2566448772       -6.4197255330
 H        13.8232319204        1.1547066017       -5.6425323458
 H         9.2864024850       -0.9928003146       -8.1417663086
 H        10.4797346665       -1.9372693048       -7.2294800597
 H        11.0195856108       -1.0667089056       -8.6657116505
 H        11.3054424413        1.3041269021       -8.7842836410
 H         9.5442272984        1.2098460329       -8.6817107148
 H        10.5236005251        2.4905140234       -7.6652289719
 Na        0.2600742319        1.1759176504        0.4344994630
