155

 C        -2.1866686568       -3.8265504754       -7.2610961022
 C        -1.7692492165       -3.3562431198       -5.8018339857
 C        -1.8689554848       -4.4217039155       -4.5840055571
 C        -0.3074575585       -4.7400590568       -4.3786037743
 C         0.2592938774       -6.1797249390       -4.7514278854
 C        -2.3349771707       -3.6225790454       -3.2679194106
 C        -2.8515294520       -5.5931663523       -4.8673683620
 O        -1.5365138412       -2.1854915834       -5.5621381349
 O         0.4751034849       -3.8216006666       -4.2364082471
 C         0.9814771053       -6.8048870015       -3.5970595141
 C         0.1158429542       -6.7074224006       -2.3429877262
 C         0.7673262030       -7.0288165279       -0.9652803326
 C         1.0209539274       -5.5206160472       -0.5088780887
 C        -0.2063620049       -4.8587281460        0.1727597108
 O        -1.0216242179       -6.3162282747       -2.4254731965
 O         2.1609165198       -5.1260483665       -0.6810088635
 C        -0.2880011109       -7.7951801596        0.0255583726
 C         2.0576630369       -7.8955508044       -1.0552130117
 C         0.2195794113       -3.4060502945        0.7577501926
 C         0.4577269753       -2.4534819581       -0.4375547623
 C         1.0120307493       -1.0312184204       -0.2740699106
 C        -0.2363673808       -0.1193349203       -0.6244562562
 C        -0.7617658709        0.9160758415        0.5780276402
 C         1.4179767496       -0.8611559154        1.2236369349
 C         2.1811132431       -0.8674225339       -1.1971336415
 O         0.3742506382       -2.9236765091       -1.5463708505
 O        -0.5558678079       -0.0424244165       -1.7947630193
 C        -2.2830550196        1.2885661397        0.4294758011
 C        -3.2484521558        0.1117851263        0.5207964831
 C        -4.6559056936        0.2647441153        1.2945737814
 C        -4.3205603284        0.3350442369        2.8097225067
 C        -5.2734337400        0.0051201382        3.9023478141
 O        -2.9887268902       -0.9640903018        0.0198194206
 O        -3.2868935091        0.9047093948        3.1720568920
 C        -5.3496826091        1.5287241787        0.7718977810
 C        -5.4704616657       -1.0098542817        1.0012165822
 C        -4.6679451228       -0.1774244266        5.2605296003
 C        -4.7703216997        1.1644373598        6.0560820259
 C        -3.7996275773        1.3893902883        7.3740978556
 C        -2.2854946814        1.4995060292        6.9530501715
 C        -1.9033193892        2.6856886935        6.0453532797
 C        -4.4217179172        2.6860100109        8.0420521254
 C        -4.0425703437        0.1700388148        8.2299093786
 O        -5.5144761362        2.0294354059        5.6663686900
 O        -1.5138409618        0.5819292576        7.3188001868
 C        -0.5470110437        2.5062570279        5.4329340056
 C         0.2705380578        3.7113686723        5.5837281103
 C         1.7727615718        3.5474036641        5.2478506261
 C         1.7266907825        3.2611801529        3.6161978028
 C         2.7164777872        4.0614408510        2.7816651188
 O        -0.1469252519        4.8765609298        5.7173939314
 O         0.8668943535        2.5453228366        3.1382229133
 C         2.6106668262        4.7784396603        5.5297882078
 C         2.4505471975        2.3185332980        5.9382834067
 C         2.3390289029        4.0138357360        1.2512241538
 C         2.9315112372        5.2294109662        0.4624770694
 C         4.2803144265        5.0283505286       -0.4063043050
 C         3.9170843748        3.8361572668       -1.4792542068
 C         3.7024187060        4.1214490088       -2.9502461806
 C         4.5857012137        6.4437041828       -1.0850526328
 C         5.3578735518        4.4144309853        0.6302717651
 O         2.3425261086        6.3263925513        0.4526811892
 O         3.9164448751        2.7243479081       -1.0269757387
 C         3.3301396628        2.7891253980       -3.6434351879
 C         1.9739120524        2.8307052001       -4.4121313994
 C         1.9055130458        1.8458442692       -5.7409902117
 C         0.8544793668        0.7923611440       -5.3336364073
 C        -0.6013509539        1.2181863460       -5.1695185267
 O         1.0479030048        3.5070405835       -4.0490153044
 O         1.2136033611       -0.3875233035       -5.1636237634
 C         1.3104117353        2.5235780432       -7.0408952056
 C         3.3069537655        1.1550429879       -6.0282060192
 H        -2.3659892328       -3.0843172069       -8.0137065036
 H        -1.4112308162       -4.5718805340       -7.5513620410
 H        -3.0575808213       -4.4554516445       -7.1918186739
 H        -0.5195044796       -6.8131354003       -5.0921643101
 H         0.9135611948       -6.1534863249       -5.6169977546
 H        -1.4434066562       -3.4353018665       -2.6502934627
 H        -2.9213436547       -4.2922202344       -2.7296544157
 H        -2.7357992655       -2.6200198407       -3.4723062865
 H        -2.8761536514       -6.1326549747       -3.9374470077
 H        -3.7976593426       -5.1775587993       -4.9717437627
 H        -2.5844887150       -6.3393819740       -5.6746726877
 H         1.2236343362       -7.7947681787       -3.7537892476
 H         1.9090150425       -6.3827875328       -3.3298188674
 H        -1.0823627032       -4.8153334497       -0.4328758060
 H        -0.3927269142       -5.5616422545        0.9919614382
 H        -1.2522235149       -7.3993071992       -0.3072013388
 H        -0.2892640380       -7.4004123664        1.0456503854
 H        -0.1481872013       -8.9239029449       -0.0222449364
 H         2.0507883893       -8.7847828478       -1.6137869117
 H         2.8839333084       -7.1973138993       -1.2044105122
 H         2.2754675803       -8.3586244119       -0.0580063926
 H         1.0497957761       -3.5378931988        1.5079894957
 H        -0.7914372746       -3.0060642221        1.2311712696
 H        -0.5480800227        0.4184772095        1.5055153491
 H        -0.3145298766        1.8464613206        0.4952477528
 H         0.6062164667       -1.1337004358        1.8584983580
 H         1.5421997063        0.1376614812        1.5561979258
 H         2.3219233029       -1.3040188984        1.4765823550
 H         1.9776390383       -1.2319932218       -2.2472772308
 H         2.5882884284        0.1568853137       -1.1974135304
 H         2.9366491358       -1.4993828346       -0.7309586181
 H        -2.6430805097        1.9779032037        1.1498004364
 H        -2.3111336810        1.7274066460       -0.5502677385
 H        -5.9474945638        0.9023493458        4.0367154532
 H        -5.9806601534       -0.7763863974        3.6887262530
 H        -4.6775004348        2.3910875230        0.9881310664
 H        -6.3183636107        1.8332756920        1.2604295161
 H        -5.6494954650        1.4042303307       -0.3003897924
 H        -6.4490181150       -0.9112665690        1.4268714359
 H        -5.6893710054       -0.9593450472       -0.0788285964
 H        -5.0063218112       -1.9562614192        1.1193174463
 H        -3.6000579566       -0.3809047339        5.2847876235
 H        -5.3090234327       -0.9615707076        5.6226251159
 H        -2.6712765539        2.8923823500        5.2754072497
 H        -1.9361467337        3.5435452365        6.6792204127
 H        -3.8269087581        3.2317092683        8.8036776515
 H        -5.3581628211        2.3717625742        8.4312744337
 H        -4.7179601473        3.4022929723        7.2582099697
 H        -3.5969573502       -0.7512683439        7.7445010249
 H        -3.7425822361        0.1877470103        9.2340993962
 H        -5.1234671816       -0.0178554987        8.1285168528
 H         0.0707643864        1.7108839611        5.8902508204
 H        -0.5689161771        2.2658262343        4.3950536863
 H         2.7837320194        5.0500376972        3.3227059555
 H         3.7536128133        3.7664141704        2.7742156908
 H         2.0023433393        5.6657509765        5.2751304952
 H         3.5454282029        4.6900710988        5.1301308599
 H         2.7332197422        4.8773859666        6.6297622373
 H         2.1487497103        1.3786914321        5.4650028217
 H         3.4709438441        2.3513609941        5.6615830938
 H         2.2679065650        2.2920346298        7.0727354828
 H         1.2495227183        4.0423404920        1.1013057667
 H         2.7287100023        3.1027548280        0.8258016673
 H         2.9384006382        4.8350517895       -3.0463771156
 H         4.7272547562        4.5142705211       -3.2164104737
 H         3.7761807795        6.6203611295       -1.7434376919
 H         5.4431957254        6.3738018914       -1.6844540122
 H         4.5494176352        7.2899832513       -0.3577499567
 H         4.8443589043        3.8239965280        1.3509803038
 H         6.0263433769        3.7401459981        0.1957154626
 H         5.9296180231        5.2853405904        0.9761311801
 H         4.1210404767        2.3428935096       -4.2974969363
 H         3.1757899591        2.0658033105       -2.8660560415
 H        -0.6290275751        2.1722957023       -4.6651100755
 H        -1.2172500817        1.3307065406       -6.0847259449
 H        -0.9816139443        0.4388840357       -4.5300950676
 H         0.4292046069        3.1376173373       -6.7641537641
 H         1.0712333015        1.8725302111       -7.8078870506
 H         2.0453798557        3.2417675117       -7.4691623093
 H         3.2155872444        0.2531345507       -6.5767778131
 H         4.1204443934        1.7436912961       -6.4359476561
 H         3.6630799946        0.8246529120       -5.0630187719
 Na       -0.1208590774       -1.7111467899       -3.8082884234
