155

 C        -1.9781132082       -3.6834027593       -7.4391827269
 C        -1.6961362836       -3.3791850764       -5.9217291912
 C        -1.7736691581       -4.4793024365       -4.7366534339
 C        -0.2188909585       -4.6798407773       -4.4460569877
 C         0.2622788676       -6.2165605453       -4.6408488805
 C        -2.4753405054       -3.7782298593       -3.5440191111
 C        -2.5474605299       -5.7495961460       -5.3333211930
 O        -1.4322803867       -2.2413866125       -5.5362083007
 O         0.5769223540       -3.7542888569       -4.2667772078
 C         1.1254334673       -6.7394124959       -3.4995274037
 C         0.1684188783       -6.8931750071       -2.2274975776
 C         0.8706664027       -7.1139850237       -0.7688610705
 C         1.1475681630       -5.6605942185       -0.1138766088
 C         0.0227223021       -4.7274321169        0.2320168085
 O        -1.0261646578       -7.0121274138       -2.4597697016
 O         2.3425616484       -5.2846643158       -0.1027671956
 C        -0.0891446493       -8.0170296449        0.0893033941
 C         2.2234762501       -7.8270050477       -0.9680713750
 C         0.5787585238       -3.3402126483        0.6767368705
 C         0.8347644892       -2.4363437763       -0.5285813425
 C         1.1907379531       -0.9423311722       -0.1611835558
 C        -0.1275948475       -0.0851243405       -0.3756142109
 C        -0.7786204197        0.8387797431        0.7810902796
 C         1.7230445015       -0.7904683350        1.3256167687
 C         2.3328384681       -0.4375485825       -1.2164232257
 O         0.4169786462       -2.8240104423       -1.6293781664
 O        -0.6748825441       -0.1381847211       -1.4878690351
 C        -2.2716376503        1.0902544212        0.3640938467
 C        -3.1422547933       -0.1289535932        0.5208110863
 C        -4.5407582795        0.0735222707        1.2352325825
 C        -4.2067050140        0.2666611815        2.7237873557
 C        -5.1857302261       -0.2325381105        3.8529008485
 O        -2.8438542094       -1.2644764733        0.1403264649
 O        -3.0541250606        0.6933921856        3.0430990642
 C        -5.1203538883        1.4465189661        0.8079201189
 C        -5.4948970299       -1.0373984950        0.8429275824
 C        -4.7764584401       -0.1199521699        5.2936284294
 C        -4.8023319465        1.2683170914        5.9101586600
 C        -4.0843675368        1.3972456044        7.3004182747
 C        -2.6268386136        1.4800046010        6.7448401779
 C        -2.1239260004        2.8448271551        6.0905364380
 C        -4.6796473151        2.5825245831        7.9770107530
 C        -4.2790315179        0.0752509634        8.1572949328
 O        -5.2247044990        2.2203512391        5.2789026126
 O        -1.9262899488        0.4979039818        6.9466360601
 C        -1.0007928580        2.7771992682        5.0856949123
 C         0.0497807622        3.7834797348        5.3445523822
 C         1.5432163268        3.3686258761        5.1243064069
 C         1.7801436552        3.2238234982        3.5884528234
 C         2.7275964419        4.2323134039        2.8976156561
 O        -0.2900630736        4.8913193982        5.7438154706
 O         1.3156704237        2.2651080026        2.9781751047
 C         2.5010895364        4.4351998114        5.8568745535
 C         1.7434163642        1.9682601891        5.6685023633
 C         2.5837451590        4.1382460799        1.3354317240
 C         3.1593052505        5.3969741881        0.5660773888
 C         4.2907632461        5.0034392244       -0.4146924826
 C         3.7679971386        3.8208338061       -1.3517976538
 C         2.8675224413        4.0332581453       -2.5055913479
 C         4.5559088658        6.2895239308       -1.1960551097
 C         5.5266549442        4.5393369693        0.4336759531
 O         2.7646901446        6.5034841163        0.7049516487
 O         4.1116185686        2.6992712692       -1.0168911714
 C         3.1652435046        3.0895055525       -3.7092985295
 C         1.9279227559        3.1030239961       -4.6963060389
 C         1.6657634433        1.9650336826       -5.8467205406
 C         0.6275968081        1.0641360142       -5.1260432819
 C        -0.8530050938        1.5912961703       -5.0071215671
 O         1.1602886545        3.9907967083       -4.6700549441
 O         0.9635575198       -0.0070797653       -4.5397396836
 C         1.2469573999        2.7367760595       -7.0748720707
 C         2.8930651774        1.1459432654       -6.0976384511
 H        -1.6896955657       -2.8028540508       -7.9754656400
 H        -1.4613868354       -4.6359846646       -7.7788231277
 H        -3.0220357705       -3.7552505955       -7.7019753189
 H        -0.5792430395       -6.8053288982       -4.7659831105
 H         0.7354610527       -6.3130772215       -5.5801358092
 H        -2.3433856851       -4.3677967780       -2.6365995211
 H        -3.5001832819       -3.8039570451       -3.7149783606
 H        -1.9384075259       -2.9070378192       -3.3191605893
 H        -2.7646691436       -6.6116293652       -4.6804213476
 H        -3.4153211505       -5.4074788650       -5.8239595365
 H        -1.9247879751       -6.1304491733       -6.2271324857
 H         1.6088424790       -7.6571480944       -3.6882409384
 H         1.8958693796       -6.0468988775       -3.2604871168
 H        -0.6691365790       -4.7472162292       -0.5610838426
 H        -0.4958455782       -5.1799231929        1.0958794699
 H        -0.9498349451       -7.3276071692        0.4732823473
 H         0.4488665677       -8.4536952993        0.9938209275
 H        -0.4225973471       -8.8108750167       -0.6456319141
 H         2.0874752141       -8.7841701840       -1.4775567367
 H         3.0689868034       -7.1091299692       -1.1344245908
 H         2.4620024661       -8.2623748867        0.0233854655
 H         1.4528545850       -3.4846627606        1.3450264164
 H        -0.2472446626       -2.8872364222        1.3678740038
 H        -0.8987894508        0.3265864261        1.7398918174
 H        -0.1982351274        1.6768965508        0.9799897026
 H         1.0132216460       -1.1476484875        2.1087488542
 H         1.8468355735        0.2439926497        1.7068546330
 H         2.6302879209       -1.3324431631        1.5637155057
 H         2.0393779627       -0.6015238187       -2.2791504673
 H         2.6089371978        0.6405881313       -1.0983531141
 H         3.2486908143       -0.9669390834       -0.9457221496
 H        -2.7131110089        1.8384235865        0.9156306525
 H        -2.5438705719        1.2862499454       -0.6835358081
 H        -6.1071602868        0.4068277731        3.6391298330
 H        -5.5181715993       -1.2490253622        3.6442138688
 H        -4.7669821112        2.2929496405        1.4695309012
 H        -6.2597780224        1.5637929679        0.8328330525
 H        -4.8559193965        1.8085493170       -0.2452031013
 H        -6.3905507604       -1.1267845426        1.3578813768
 H        -5.6685805866       -1.0018997352       -0.2085099231
 H        -4.9522731590       -2.0434419375        0.9109392858
 H        -3.7855444635       -0.5927921346        5.4532513145
 H        -5.5088536589       -0.6996271164        5.8628687822
 H        -3.0108188267        3.2171147017        5.5578774456
 H        -1.8549160838        3.4339180301        6.9304131818
 H        -4.1164000041        2.7568728836        8.9158438675
 H        -5.6635472897        2.4030378278        8.1339317279
 H        -4.4926069371        3.5834493777        7.4204330092
 H        -4.1191671857       -0.8612827864        7.5808558570
 H        -3.6885084335        0.1943819288        9.0128229551
 H        -5.3158342465       -0.0213314405        8.5211924178
 H        -0.5495613482        1.7512984723        5.0601860974
 H        -1.3455852010        2.9336290076        4.0652343035
 H         2.4647618650        5.2788697156        3.1567194361
 H         3.6735072485        3.9878669451        3.3423768625
 H         2.3570200511        5.4489443057        5.4959472601
 H         3.5002441441        4.0841932414        5.8539618035
 H         2.2118668992        4.3361797718        6.9355590477
 H         1.1729385602        1.2439791785        5.0311153539
 H         2.8263017049        1.7798445696        5.6116413610
 H         1.3687761079        1.9665440126        6.7583387992
 H         1.5321085811        3.8534766805        1.1209500356
 H         3.1691683103        3.3067746192        0.9055322885
 H         1.8952636963        3.8192467741       -2.1290075792
 H         2.9077839840        5.1200209516       -2.9149720665
 H         3.6765700124        6.8495855669       -1.0667164792
 H         4.7416890119        6.0258105376       -2.1846718658
 H         5.3626430102        6.9674251643       -0.7871842714
 H         5.4991813186        3.4408105242        0.4862287766
 H         6.4099936480        4.9319524372       -0.0265831339
 H         5.4007797651        5.0383794059        1.4663162377
 H         4.1784430874        3.2004958080       -4.2359902566
 H         3.1614887281        2.0496657358       -3.4213557386
 H        -0.8374083936        2.1668761118       -4.0861945243
 H        -1.1110838385        2.3133192255       -5.7156062471
 H        -1.5997842570        0.8060105002       -4.9864901278
 H         0.5178985719        3.5826289074       -7.0370152348
 H         0.9964184295        2.0786033874       -7.8585529806
 H         2.1740716409        3.1845798171       -7.3932395366
 H         2.7675832932        0.4405674298       -6.8853003267
 H         3.7960560022        1.6544211194       -6.4213924739
 H         3.1070684788        0.6131590362       -5.1601350137
 Na       -0.2864059722       -1.5918512637       -3.3521898416
