155

 C        -1.8410731698       -3.3653555269       -7.3371013691
 C        -1.6218935995       -3.1525184558       -5.8091403945
 C        -1.7780939823       -4.5308743150       -4.8598432916
 C        -0.2895648945       -4.8127269101       -4.5160956015
 C         0.5178828797       -6.1265437988       -4.6647183909
 C        -2.7263775174       -4.2272304795       -3.5413788573
 C        -2.5645067051       -5.6808250273       -5.6126295489
 O        -1.1940390947       -2.0871322849       -5.4531226064
 O         0.3327901179       -3.8013610576       -4.2169804162
 C         1.1939187916       -6.3499272523       -3.3084797012
 C         0.2993401557       -6.9363257820       -2.2012853784
 C         1.0272676097       -7.0723414397       -0.7350506272
 C         1.3741825441       -5.7688871613       -0.1749640427
 C         0.0884561261       -4.8345994006        0.2926316863
 O        -0.8796998168       -7.1560762892       -2.2216562597
 O         2.4827705469       -5.4850633477        0.1346806429
 C        -0.0064517739       -7.7367820844        0.1779262734
 C         2.3217898333       -8.0527147285       -0.8456687255
 C         0.6366190258       -3.4568303257        0.7329214594
 C         0.7787451858       -2.4727438901       -0.3846093831
 C         1.1855529808       -0.9754820268       -0.0934090640
 C        -0.1802363611       -0.1174968443       -0.5542289201
 C        -0.6751619603        0.6991301141        0.5615049725
 C         1.7321018090       -0.7167484463        1.2949895951
 C         2.1927405950       -0.5649695417       -1.1880229666
 O         0.6671922086       -2.8073581478       -1.5349669080
 O        -0.6748570841       -0.1697918018       -1.6465980744
 C        -2.0969672980        1.0719390365        0.4559795437
 C        -3.1004348812       -0.2307795712        0.5660957748
 C        -4.4324976720        0.0608474622        1.1837225175
 C        -4.1425519498        0.1915279699        2.8554156950
 C        -5.3750291793       -0.1399355749        3.7137165523
 O        -2.7244524513       -1.3398714264        0.2693270966
 O        -3.1220904747        0.5288929790        3.3375788489
 C        -5.1500030691        1.4577624162        0.8605849038
 C        -5.4826767169       -1.0547147229        0.9621549554
 C        -4.8945726281       -0.2952625755        5.1266358974
 C        -4.8321203923        1.0860596405        5.7234494577
 C        -4.1788676343        1.3649344752        7.1476777694
 C        -2.7182607620        1.5439205353        6.6910023231
 C        -2.4082110998        3.0275019684        6.1742983156
 C        -4.9025374174        2.6168141347        7.8259875329
 C        -4.4219777604        0.1553026428        8.0692139592
 O        -5.2272880924        2.0158902260        5.0595979631
 O        -1.8984076155        0.6396257167        6.6134950464
 C        -1.2144555365        2.8496434632        5.1332519691
 C         0.0100361413        3.6876872203        5.3924802982
 C         1.4494917906        3.1361711175        5.1817613481
 C         1.7160508535        3.1544382969        3.5184377191
 C         2.2449480974        4.4630785653        2.8679044577
 O        -0.1827523132        4.8612978817        5.6912038069
 O         1.5216190942        2.1722222231        2.8264924694
 C         2.4456144831        4.2152870612        5.7781245772
 C         1.5729079363        1.6907135943        5.8506058881
 C         2.7814392407        4.1074725575        1.4936149105
 C         3.2573118335        5.3308068050        0.6511009106
 C         4.3879193078        5.0651271178       -0.5980632727
 C         3.8698922490        3.8896539939       -1.3438565512
 C         2.7070883133        4.1413247202       -2.4015898689
 C         4.7165416951        6.2551398090       -1.4324493782
 C         5.7201444058        4.5577242150        0.2087446721
 O         2.8412409514        6.4457463931        0.9471884599
 O         4.1069801014        2.7043349281       -1.1576595785
 C         2.8752726089        3.1336903690       -3.5700951281
 C         1.9035673723        3.3685291926       -4.7832318914
 C         1.6296432022        2.1117743428       -5.7465769392
 C         0.5209327912        1.2052482434       -5.0470738431
 C        -0.8738586161        1.6389133126       -5.0099727904
 O         1.1716282272        4.3618247305       -4.8220475934
 O         0.9273813928        0.2802815221       -4.4050427895
 C         0.9985949377        2.4888559227       -7.1180115388
 C         2.9227843480        1.2838322554       -5.9017950111
 H        -1.7440809697       -2.5439049924       -8.0552290753
 H        -1.2942347605       -4.2180112354       -7.5879270030
 H        -2.8998906416       -3.6503733411       -7.4678164394
 H        -0.1677225240       -6.9858638637       -5.0157384127
 H         1.2849031646       -6.0096617923       -5.4962767036
 H        -3.1609882618       -5.1573957852       -3.1201332745
 H        -3.5801602766       -3.5947492483       -3.7839463579
 H        -2.0311605160       -3.8622464524       -2.8077207708
 H        -2.5577586375       -6.4623158698       -4.8964841233
 H        -3.6080492092       -5.4079485067       -5.9134745188
 H        -2.1674536190       -6.0916997632       -6.4836181993
 H         2.1084879635       -6.9905754435       -3.4569784750
 H         1.5465385851       -5.3934830220       -2.8260313644
 H        -0.5951837757       -4.6781054860       -0.6019282862
 H        -0.5463194423       -5.2607913826        1.0567339106
 H        -0.6191924895       -7.0096186491        0.5598475493
 H         0.5779354367       -8.1673322202        0.9548227481
 H        -0.6243099582       -8.4450588063       -0.3490566989
 H         2.0409433037       -9.0466791086       -0.5148774295
 H         2.7107650475       -7.9872798162       -1.8257346046
 H         3.1559031643       -7.7106980765       -0.1919658949
 H         1.6196023908       -3.5451508525        1.2863756437
 H        -0.0235286614       -3.0249792457        1.4410276972
 H        -0.5035846013        0.1789293494        1.4996865412
 H        -0.0075075141        1.6364555762        0.7267865798
 H         1.0928112853       -1.0743781219        2.0776698617
 H         2.0006100959        0.2879308444        1.4686498458
 H         2.5741424032       -1.3234570089        1.5690978676
 H         1.7806731357       -0.8699085277       -2.1579415953
 H         2.4402976450        0.4886266406       -1.2161657211
 H         3.1736461168       -1.0698764218       -1.0166937791
 H        -2.3493436229        1.7835096799        1.3436196162
 H        -2.3383919005        1.6468136579       -0.4266136490
 H        -6.1434707832        0.5548975685        3.5402460554
 H        -5.6841812237       -1.1291916812        3.3267776216
 H        -4.5061063825        2.3518120653        0.8273233125
 H        -5.8682077241        1.6597795232        1.6128180818
 H        -5.6486305499        1.5481789933       -0.0922810393
 H        -6.4049272981       -0.7857297189        1.5963986845
 H        -5.8703650489       -1.2711283745       -0.0667416503
 H        -5.1967941496       -1.9892255280        1.3118425387
 H        -3.9550895707       -0.8321961513        5.1139570744
 H        -5.5622885327       -0.8609215288        5.8059880853
 H        -3.2507743727        3.4928978743        5.7111537277
 H        -1.9491231685        3.4971797362        7.0658212794
 H        -5.0074315047        2.5675140488        8.9093599167
 H        -5.8968764274        2.8374821763        7.2925221923
 H        -4.2851510438        3.4205486664        7.6968699076
 H        -3.9174534101       -0.6976304091        7.6738757073
 H        -4.1761003309        0.4046000465        9.1306362314
 H        -5.4828764372       -0.0769213794        8.0672864902
 H        -0.9525463635        1.8438113746        4.9756745553
 H        -1.5181638286        3.2286117205        4.1472001237
 H         1.4756233067        5.2536477122        2.8038279687
 H         3.0852551918        4.7229158333        3.5796329675
 H         2.0985927955        5.1985615405        5.3898773124
 H         3.5048685316        3.9883720639        5.5316873174
 H         2.3516222567        4.0672771464        6.8206510689
 H         1.2896504161        0.9546966377        5.1245893683
 H         2.5609514833        1.5811096095        6.2989113449
 H         0.8683097980        1.6665935457        6.6403288171
 H         2.0164691809        3.6427056462        0.8634919246
 H         3.4912909271        3.3063508451        1.5389336382
 H         1.8086057825        3.8264101786       -1.7980645932
 H         2.5017961638        5.0620696943       -2.8096090778
 H         4.0118528542        7.0555858118       -1.1387598249
 H         4.6885190473        5.9997351783       -2.5128854727
 H         5.6822643892        6.5614993039       -1.2317044165
 H         5.4739271546        3.6417082582        0.6991652984
 H         6.4651682231        4.4622153889       -0.5834753054
 H         5.9655480802        5.2775202279        0.8983616795
 H         3.8318670632        3.1280347943       -3.9856365538
 H         2.7429175349        2.0606617546       -3.2319428272
 H        -1.0100124411        2.3842765388       -4.2434934194
 H        -1.2399151390        2.1262950354       -5.9988519378
 H        -1.4971102278        0.7611824943       -4.8851815893
 H         0.1850270372        3.1098297172       -6.8640059923
 H         0.5889993254        1.6075230548       -7.6414382959
 H         1.5336140887        3.1460595142       -7.8406977846
 H         2.7196760220        0.3353511246       -6.3947723281
 H         3.5226695108        1.7915629268       -6.6478500564
 H         3.4886608437        1.0574114694       -5.0404730456
 Na       -0.2092871010       -1.4387747303       -3.4550689204
