155

 C       -12.6928914514       -5.6911902108        1.9217312619
 C       -11.8886481287       -4.6261949065        2.4503279579
 C       -10.5735487520       -5.1541576743        3.3624435355
 C        -9.4821361543       -4.0286468198        3.3180929800
 C        -9.0766323756       -3.5578408148        1.9338832829
 C       -11.0117806462       -5.2330775378        4.8447248033
 C        -9.9586373846       -6.4490654550        2.7777291117
 O       -12.0456778276       -3.4376945084        2.2525042593
 O        -9.2476910266       -3.3354326003        4.2805245459
 C        -8.0358659209       -2.5392792387        1.9963325998
 C        -6.6014353827       -3.1379185393        2.1985162576
 C        -5.5556178055       -2.1691507636        2.8540899383
 C        -4.8742862039       -1.4211687013        1.6103695142
 C        -3.6114233327       -1.9560619875        0.9158011456
 O        -6.3553517370       -4.1994512242        1.7656109863
 O        -5.3986798721       -0.3832370299        1.3345828132
 C        -6.1435614845       -1.1067856158        3.8476526761
 C        -4.5666929550       -2.9366198511        3.7836711925
 C        -3.3633680561       -1.2515027052       -0.3851625193
 C        -1.9531415452       -0.7124069912       -0.7031732356
 C        -1.6904304382       -0.0570987097       -2.0897001943
 C        -2.0172945482        1.5082975246       -1.8431248178
 C        -3.2927872695        2.2311766365       -2.3015028757
 C        -0.1690184235       -0.2653801001       -2.4948582352
 C        -2.6319648032       -0.5912808286       -3.1700635992
 O        -1.0661395700       -0.9125793290        0.1296486996
 O        -1.1325576892        2.1831859219       -1.3430614631
 C        -3.5115256809        3.4837025626       -1.4322620625
 C        -3.8384327894        2.9657318527       -0.0090928902
 C        -4.2278448985        4.0410715782        1.0821286136
 C        -3.4752418728        3.8123191569        2.3939524640
 C        -3.7575161509        2.5326894669        3.1672083802
 O        -3.8783073406        1.7204257418        0.1392683837
 O        -2.6779396902        4.6610863223        2.7640117946
 C        -3.9013182128        5.4096485159        0.5037155702
 C        -5.7643102009        3.9487939074        1.3697239545
 C        -2.5872153804        2.2642431271        4.1916874478
 C        -1.3409907267        1.7738245740        3.4485493434
 C        -0.2687627253        0.8417651657        4.2037211880
 C         0.9775370824        1.0751535404        3.3036514394
 C         2.2823292328        1.8378843222        3.7700778772
 C        -0.0328166804        1.3134674627        5.6214262859
 C        -0.8492269132       -0.5341543310        4.0709439102
 O        -1.1902771387        2.0625155985        2.2685399217
 O         0.9983460938        0.4434642172        2.2408320961
 C         3.2483906586        2.1928313790        2.6418615211
 C         2.5865409151        3.0239226053        1.5580620660
 C         3.1956905917        2.9925697441        0.0891693794
 C         3.4141434674        1.5278633859       -0.4651362765
 C         4.6751729386        1.1028940426       -1.1131769768
 O         1.6141343178        3.7379969710        1.8218416544
 O         2.4297663173        0.7193941859       -0.4878886829
 C         2.2877568415        3.6034412894       -1.0039776677
 C         4.5819885774        3.7151573417        0.3120587044
 C         4.5667997209       -0.0017025808       -2.1860279878
 C         5.7620295929       -0.8851782306       -2.0071126814
 C         6.1307813601       -1.6796629463       -3.3313450501
 C         6.8966638555       -0.7301266061       -4.2485081396
 C         8.2620771632       -0.3077104231       -3.8222348913
 C         7.1453589659       -2.8368912611       -3.0152332074
 C         4.8267035336       -2.3124938259       -3.8525648425
 O         6.3971630537       -1.1180609294       -0.9528285683
 O         6.4713918309       -0.3569887450       -5.3429558954
 C         9.4635286300       -0.6835613842       -4.8664728930
 C         9.7389035333        0.5106330439       -5.9129941897
 C        10.4843934989        0.1690752337       -7.1683995690
 C        11.9531823322       -0.0085616029       -6.5573380916
 C        12.9824698895        1.0916127849       -6.8574060049
 O         9.3671872708        1.6522744193       -5.6428758190
 O        12.1867582419       -0.9972706417       -5.9046783223
 C        10.2162553323       -1.2352913565       -7.7556109244
 C        10.4020131987        1.2514303329       -8.1568600136
 H       -12.5444763244       -6.5876879821        2.5264428998
 H       -13.7592906066       -5.4317760845        1.8894111122
 H       -12.3410431103       -5.9942403321        0.9356333806
 H        -8.7418171881       -4.4495906711        1.2530385962
 H        -9.9685730045       -3.2648562543        1.3785765639
 H       -10.2374557361       -5.6931021970        5.5136413653
 H       -11.9282340449       -5.7702201215        5.0962183277
 H       -11.1639954184       -4.2252764876        5.1040291318
 H       -10.5587349514       -7.2302796873        3.0578184463
 H        -9.8957349127       -6.3770951922        1.6946133582
 H        -9.0198775953       -6.5626117770        3.1986367777
 H        -7.9638447777       -2.0196765635        1.0457160070
 H        -8.1613422516       -1.7987396941        2.6995472337
 H        -2.7156730325       -2.1065909990        1.4488518977
 H        -3.7973637425       -2.9995970438        0.5414144499
 H        -5.3503862180       -0.5393052569        4.2640737139
 H        -6.6084594694       -1.4424870244        4.7896015172
 H        -6.7238345308       -0.3765481339        3.3461821181
 H        -5.1819561232       -3.3329945309        4.6237555534
 H        -4.2707016748       -3.9775143978        3.4171459246
 H        -3.7297524792       -2.3223478683        4.1262657908
 H        -3.9832007281       -0.3561293503       -0.4477440222
 H        -3.6882634655       -1.8542640497       -1.1829336799
 H        -3.1164082385        2.4606137770       -3.3841591138
 H        -4.2093035741        1.5859946611       -2.3031797005
 H         0.4133637556       -0.0895443130       -1.5320727027
 H         0.3413772880        0.4769745502       -3.1044424160
 H        -0.0080757095       -1.2602278280       -2.7066327386
 H        -2.5487751910       -1.6833730002       -3.3477862577
 H        -3.6583945912       -0.3099442472       -2.9093238166
 H        -2.1851980648       -0.1995036844       -4.1217605248
 H        -2.6361941463        4.0463851102       -1.4715923027
 H        -4.3823139207        4.0032963902       -1.8282468155
 H        -4.6673104656        2.6375744137        3.7267606677
 H        -3.8292046588        1.6837100597        2.4560774962
 H        -2.8180395870        5.3233902502        0.3491307975
 H        -4.1392065117        6.2136942507        1.2339897307
 H        -4.5030773071        5.4970318740       -0.4106947574
 H        -6.3008233001        4.4061572436        0.5161841999
 H        -6.2328274335        2.9062786027        1.4157065281
 H        -5.9826378079        4.5726663046        2.2456676108
 H        -2.8686068543        1.4271097069        4.8575512019
 H        -2.3106461278        3.2018371207        4.7051478091
 H         1.9763238794        2.7140127465        4.2077775150
 H         2.8066741013        1.2981243696        4.6273924882
 H        -0.1246436256        2.3942746247        5.6157221950
 H         1.0602354700        1.2061702004        5.8954598659
 H        -0.6913593960        0.9587478556        6.3250617149
 H        -0.3912144785       -1.2021055092        4.7669934282
 H        -1.8386859069       -0.5836367369        4.5475201551
 H        -0.7838444632       -0.8441790719        3.0568446709
 H         4.1133126586        2.6744526122        3.0724264674
 H         3.6195357527        1.2745699449        2.2010432255
 H         4.9972248846        2.0627106142       -1.5352459986
 H         5.2751430298        0.7555971118       -0.2842394553
 H         2.4936212968        4.6363871331       -0.8842519188
 H         1.2885005673        3.3265953916       -0.9298104417
 H         2.5850763311        3.1939099168       -1.9461747360
 H         5.1057250614        3.9098401421       -0.5318697262
 H         4.2755279026        4.7285495397        0.7012214702
 H         5.1660416721        3.2275883681        1.0541191221
 H         4.3157251379        0.3549638749       -3.2362752157
 H         3.6640323907       -0.6235042998       -1.9247087686
 H         8.2194477541        0.8129232387       -3.7488587328
 H         8.6307778658       -0.5935712422       -2.8504179437
 H         7.8462643964       -2.5590979162       -2.2074556624
 H         7.6588436809       -3.1357300857       -3.8890501254
 H         6.6511586114       -3.7276949877       -2.6769375238
 H         4.1105622385       -1.7635269847       -4.5020723057
 H         4.9624944260       -3.2394004141       -4.4503381929
 H         4.2473488290       -2.7255926021       -3.0435980110
 H        10.3401837113       -0.5780619187       -4.2235794609
 H         9.2714153691       -1.6688994358       -5.3220745761
 H        13.5066852920        0.7388174398       -7.7409620833
 H        12.5599998883        2.0743145263       -7.0092637719
 H        13.8067100185        1.2537626067       -6.1738968041
 H         9.1604950497       -1.3566353444       -8.0308362048
 H        10.5337031134       -2.0080029642       -6.9753490139
 H        10.8183054672       -1.3916734716       -8.6488791741
 H        10.9450348531        0.9992137373       -9.0947155977
 H         9.3607679038        1.3208486644       -8.4298640683
 H        10.6987009873        2.1379571409       -7.7092926202
 Na        0.2316418686        1.1025696605        0.1010800068
