155

 C        -2.5929155601       -2.5924863316       -6.5038679584
 C        -1.6739733832       -3.0362721578       -5.2958063440
 C        -0.9585942359       -4.3915724056       -5.5179133597
 C         0.4529717789       -4.4204196981       -4.8367645554
 C         1.3156740842       -5.6820217434       -4.7188488074
 C        -1.7858649578       -5.5711827448       -5.0164650213
 C        -0.6895588334       -4.4763416312       -7.0722208108
 O        -1.6507466275       -2.3607077383       -4.2997838568
 O         0.8892976955       -3.3511302217       -4.4226535242
 C         2.0825777690       -5.9128001429       -3.3518001031
 C         1.0980773641       -6.5316257950       -2.2486384039
 C         1.6003671412       -6.8450644486       -0.8288811274
 C         1.8429249394       -5.4854667006       -0.1458025232
 C         0.6614862036       -4.8544076594        0.6519564485
 O         0.0176773987       -6.8716289317       -2.6497974388
 O         2.8955404443       -4.9113130419       -0.3631128827
 C         0.6779473943       -7.9027605737       -0.2001962828
 C         3.0070015728       -7.5600099087       -0.8082573785
 C         0.9336527284       -3.4226950739        0.9613783010
 C         1.1902312244       -2.4855124609       -0.2299027487
 C         1.5735508050       -1.0545237608        0.1433796016
 C         0.2204314088       -0.1597902274       -0.1833465739
 C        -0.5995810976        0.6093735180        0.8249186086
 C         2.1421835043       -0.8379255430        1.5326330075
 C         2.5825368864       -0.5128219776       -0.8882224939
 O         1.0119519105       -2.7680572341       -1.3948381309
 O        -0.0821630037       -0.0521366233       -1.3605099456
 C        -2.0975373542        0.5041756431        0.8177720192
 C        -2.5307025659       -0.9875925878        0.7675334825
 C        -3.9610933710       -1.3704036602        1.2695199188
 C        -4.2207459452       -0.9726540951        2.8673393188
 C        -5.6981760653       -0.6586069131        3.3566711945
 O        -1.8470571249       -1.8248635301        0.2348520995
 O        -3.3119046709       -1.0231283241        3.6914411541
 C        -4.9734388192       -0.6698541323        0.2814488337
 C        -4.0559603243       -3.0001155182        1.0710749246
 C        -5.6474326923        0.0269792107        4.7175669838
 C        -5.6833073825        1.5979204526        4.5967570490
 C        -5.0521150474        2.3642988388        5.6600696655
 C        -3.3455994022        2.3104840110        5.2833207826
 C        -2.7344514343        3.3084933701        4.3000280954
 C        -5.6378714739        3.7695833146        5.7592166341
 C        -5.1681870719        1.6837659407        7.1108676009
 O        -6.1267763830        2.1090656197        3.5735959656
 O        -2.8076146712        1.3610700197        5.8307098123
 C        -1.2029110459        3.0675870693        4.0394453993
 C        -0.4671854687        3.6875637803        5.2673637427
 C         0.9015983758        3.0731534358        5.5858282812
 C         1.7144551354        3.1409506940        4.1644459081
 C         2.5890872284        4.3522718559        3.7651728764
 O        -0.8808986896        4.6650235650        5.8379104725
 O         1.6707294329        2.1761506916        3.4574846151
 C         1.5870750803        3.9860876352        6.6233044858
 C         0.8332186789        1.6406663797        6.0685146500
 C         3.5859885578        4.1787470701        2.6267284206
 C         3.1542473255        4.8064965505        1.2308403785
 C         4.0795830873        4.7886018751       -0.0572366613
 C         3.5491564687        3.7806012596       -1.0775898991
 C         2.4577243333        4.3566745453       -2.0268751563
 C         4.1816403436        6.2587944466       -0.5513334501
 C         5.5356405406        4.2976526135        0.2766581156
 O         1.9965749272        5.1160270678        1.0552948605
 O         3.8286242778        2.6135980894       -1.0467877051
 C         2.2859674371        3.3427183039       -3.2552178870
 C         1.0203569271        3.5441879906       -4.0916405396
 C         0.8042648638        2.5887643487       -5.2840329022
 C         0.2801159515        1.3653104911       -4.5341705649
 C        -1.0796763382        1.5521887831       -3.8540358528
 O         0.1083126714        4.2782831858       -3.6844649760
 O         0.9909292750        0.4202391519       -4.3376062765
 C        -0.2813610950        3.1747100503       -6.2777659382
 C         2.0922836540        2.3055257316       -6.1505047741
 H        -2.0404384963       -1.9937823467       -7.2105536727
 H        -3.0807116454       -3.4077362933       -6.9996543251
 H        -3.2813008357       -1.8012114735       -6.1431342903
 H         0.8466361527       -6.6421190757       -4.8490240572
 H         2.1199403974       -5.5769003958       -5.4420844871
 H        -2.9171805238       -5.3730826727       -5.1906026368
 H        -1.6089736944       -5.6630142730       -3.9412410809
 H        -1.7148926038       -6.6036390600       -5.4217822169
 H        -0.2075517386       -5.3980743369       -7.2602483533
 H        -1.5585556736       -4.4726522700       -7.6736770648
 H         0.0437761287       -3.6592265036       -7.3660144078
 H         2.8600156884       -6.6122557021       -3.5682539560
 H         2.5738970745       -5.0449693800       -2.9829553832
 H        -0.2318073261       -4.9326703366        0.1055031309
 H         0.6065562587       -5.4099686710        1.5685730309
 H        -0.0751286380       -8.5626269981       -0.6676243746
 H         0.1554931072       -7.4921579088        0.7281140164
 H         1.3833704134       -8.7036694060        0.2466432479
 H         3.8369065303       -6.9083760604       -1.0260162842
 H         3.1319371400       -7.8625970159        0.1853498980
 H         2.9583059267       -8.3422587769       -1.5921157166
 H         1.8387216931       -3.4670667783        1.6610647207
 H         0.0165146614       -2.9700070223        1.5139669505
 H        -0.3862310235        0.3378921723        1.8187989058
 H        -0.2914252292        1.6901295048        0.6789996253
 H         1.2596996557       -1.0762648116        2.1523714398
 H         2.3724053079        0.2109172934        1.6970184994
 H         3.0790803725       -1.4125099228        1.6777537593
 H         2.3207978456       -0.6928900224       -1.9417435833
 H         2.8874277572        0.4939300124       -0.7944651037
 H         3.4878671446       -1.1005071164       -0.7519308785
 H        -2.4003786035        1.1660619518        1.6605378780
 H        -2.5247210578        0.9748301923        0.0189978606
 H        -6.2014178178        0.0202794138        2.5956433186
 H        -6.4205173240       -1.4569009624        3.3218093012
 H        -4.9659534042        0.4211748202        0.3436486072
 H        -6.0168169579       -0.8809156859        0.4195899547
 H        -4.9586027651       -0.8452610275       -0.7884096157
 H        -4.9596603564       -3.2218679895        1.5273297315
 H        -3.9708283395       -3.1833569724        0.0479991262
 H        -3.1882678992       -3.5742703600        1.5182107225
 H        -4.6326536458       -0.2242661751        5.0643232551
 H        -6.4363081852       -0.3619704776        5.3430255439
 H        -3.3188761711        3.4369057919        3.3978703504
 H        -2.8543524829        4.2982306027        4.7737000642
 H        -5.9949825653        4.0077256089        6.7168594180
 H        -6.4018400055        3.9698783533        4.9481717291
 H        -4.8266917529        4.4429177702        5.4467635996
 H        -4.7011237796        0.7019596948        7.1387752442
 H        -4.6229756496        2.2263259861        7.8762358961
 H        -6.2204741626        1.6285031534        7.3508157653
 H        -0.9603102463        1.9932222471        3.9377350714
 H        -0.8596531954        3.6103333986        3.1224417078
 H         1.9160484246        5.1292260706        3.5243347503
 H         3.2240350485        4.5401779725        4.6481348227
 H         1.6214195404        5.1186132872        6.5088698962
 H         2.5997597848        3.7332838699        6.7473786589
 H         0.9662517263        3.9435320673        7.5097780643
 H         0.2834858737        1.1206529425        5.3212614603
 H         1.7396802417        1.1536613335        6.1925583098
 H         0.2151987693        1.5205269829        6.9618580313
 H         3.6117402234        3.1080119952        2.4075207132
 H         4.6807475749        4.3980773950        2.8580543522
 H         1.5370738665        4.5171906024       -1.4312790129
 H         2.6950399339        5.3098900067       -2.3756952763
 H         3.1566275651        6.5762942579       -0.8237715427
 H         4.6977618479        6.2756213001       -1.5225332673
 H         4.5808865829        7.0392285003        0.2203616205
 H         6.1285187122        4.2264974810       -0.6210452834
 H         6.1662224076        4.8693457398        0.9289085748
 H         5.4337528001        3.2755861265        0.7167659529
 H         3.2183481037        3.3373966852       -3.8789126359
 H         2.2874175575        2.2208514086       -2.8763559295
 H        -1.5720808904        2.5218705293       -4.0182289053
 H        -1.7356892142        0.7737821217       -4.2488276520
 H        -1.0730140176        1.3904505275       -2.7316424003
 H        -1.2326964512        3.2252734253       -5.7530608952
 H        -0.4695219337        2.5066662574       -7.0794812319
 H        -0.0719064602        4.2272896401       -6.5915290178
 H         1.9020061690        1.4750400330       -6.8061315451
 H         2.0568060380        3.2112508922       -6.7286771403
 H         2.9949882284        2.2070117071       -5.6078443655
 Na        0.2304188084       -1.4657025825       -3.1359671205
