155

 C        -3.0248427871       -3.0576794517       -5.8504090039
 C        -1.6640767746       -3.2096968096       -5.2347865313
 C        -0.6118035965       -4.3218988326       -5.5448374703
 C         0.8089081131       -4.2205406530       -4.8231658726
 C         1.6035695285       -5.4427861158       -4.9093464923
 C        -1.3194732651       -5.6901839581       -5.3685416332
 C        -0.2232552788       -4.2681799099       -7.1248391700
 O        -1.3385595545       -2.2611181533       -4.5321915900
 O         1.2153222080       -3.3104788931       -4.1602072461
 C         2.3734962099       -5.9825818492       -3.6638466593
 C         1.3403116673       -6.3575687354       -2.5631366791
 C         2.0044183566       -6.9519658010       -1.2692677154
 C         2.1371950043       -5.5373757750       -0.4290949939
 C         0.9274750855       -5.0645600381        0.3194578887
 O         0.1473906600       -6.3661980403       -2.7373230121
 O         3.2486275523       -4.9736725269       -0.4342331704
 C         0.9011390986       -7.8316825804       -0.5858962936
 C         3.2075680142       -7.8619215958       -1.3420970052
 C         1.3118939435       -3.6500017080        0.8557263028
 C         0.9571337052       -2.5316722657       -0.1085499701
 C         1.3583230529       -0.9171771927        0.2083793564
 C        -0.0249330333       -0.0963033479       -0.1732258640
 C        -0.7800074665        0.7868195270        0.9446758390
 C         1.7309217396       -0.6706970401        1.6525208570
 C         2.4826829945       -0.3859214726       -0.7213791354
 O         0.2665123650       -2.8865605173       -1.0677855640
 O        -0.4830803673       -0.1468498663       -1.3091385691
 C        -2.2795770999        0.2607231543        0.8082530209
 C        -2.3561520898       -1.2028060925        1.0624211973
 C        -3.7916024902       -1.7319005853        1.2673765566
 C        -4.1533624354       -1.2598929297        2.6470278190
 C        -5.5157226815       -0.9242076007        3.1682179412
 O        -1.3480533918       -1.8914643849        1.1344013267
 O        -3.2572158227       -1.1599918394        3.4513866012
 C        -4.8712720949       -1.2497901596        0.3198069504
 C        -3.6925888817       -3.3167966045        1.2032115289
 C        -5.4267260603       -0.0757734853        4.4236156941
 C        -5.4710746696        1.4944254032        4.1238321235
 C        -5.3378117125        2.5205328646        5.2579998933
 C        -3.7006034225        2.6817137846        5.3127649116
 C        -2.9749311865        3.7669081573        4.5379894748
 C        -5.9252359539        3.8860331212        4.9847654957
 C        -5.9236625293        1.9475963848        6.5749732328
 O        -5.3035945744        1.8744310831        2.9660489958
 O        -3.0975732199        2.1075751628        6.1472242222
 C        -1.5222471134        3.3099816175        4.2352477575
 C        -0.4652185302        4.0844903241        5.1074845000
 C         0.7292966490        3.3800475110        5.6588259636
 C         1.6460229045        3.1315807537        4.1985534990
 C         2.9466259701        3.9133991183        4.1272786394
 O        -0.6517556340        5.2884575743        5.3003364401
 O         1.3529565540        2.2550619508        3.4456787398
 C         1.5093996066        4.3252302840        6.6244168051
 C         0.5184662555        1.9951266321        6.2261149302
 C         3.8624844440        3.5565704477        2.8975871814
 C         3.1918963292        4.0833549792        1.5510854062
 C         4.0358289736        4.7278835859        0.2750385226
 C         3.5737623509        3.9227231839       -1.0026028619
 C         2.2325158117        4.2829648165       -1.6802851158
 C         3.5505396800        6.1759745744        0.1537740121
 C         5.5309243210        4.7097301488        0.4684480610
 O         2.0164025414        3.9786243256        1.3961357800
 O         4.2738743605        3.0166414209       -1.4455844436
 C         2.1360018237        3.6898638760       -3.1138810791
 C         0.7911171406        3.6200815584       -3.7542271852
 C         0.5903448533        2.7443790201       -5.0676400692
 C        -0.0442435866        1.2967641160       -4.5735909166
 C        -1.4371164329        0.9002266920       -4.6070478708
 O        -0.1731793699        4.2968577698       -3.3835916777
 O         0.8224952861        0.5175165787       -4.1617145476
 C        -0.2861320687        3.5348697820       -6.0600945890
 C         1.9490465988        2.3165193706       -5.8037128414
 H        -3.6943290467       -2.6165958476       -5.0970866208
 H        -3.0660872860       -2.3744517498       -6.6904784612
 H        -3.4157333209       -4.0110375089       -6.2666113203
 H         1.1369686015       -6.2781465352       -5.3112549750
 H         2.3419432167       -5.1983831577       -5.6263457965
 H        -1.2815719808       -6.0079901844       -4.3109879974
 H        -1.0696711568       -6.3924818660       -6.1244348755
 H        -2.3851004428       -5.7153963930       -5.5012894573
 H         0.2704813782       -5.2320280823       -7.3739411143
 H        -1.1654988376       -4.1880189488       -7.7506437513
 H         0.4018290082       -3.4594018970       -7.3610500600
 H         2.8680038973       -6.8765661574       -3.9798840165
 H         3.0583944225       -5.2439636372       -3.4105118479
 H        -0.0272981597       -5.1208590838       -0.1916314092
 H         0.7435813242       -5.8107628283        1.1235400649
 H        -0.0374200581       -7.2853130069       -0.3026874360
 H         1.1904659443       -8.4256984153        0.3761172257
 H         0.4302431328       -8.5851387796       -1.3120635664
 H         4.1865031862       -7.3424309961       -1.3943948566
 H         3.1667444314       -8.5107723189       -0.4808267701
 H         3.2304093515       -8.4928561748       -2.2563596063
 H         2.3751223231       -3.6026620672        1.0798466127
 H         0.6542027730       -3.5894919805        1.7565029144
 H        -0.4168887843        0.8111520243        2.0051597052
 H        -0.6016589267        1.9071938714        0.7378767175
 H         0.8877251231       -1.1118236496        2.2185011241
 H         1.7772882367        0.4024407104        1.8538392308
 H         2.5906709467       -1.3635399517        1.8365161897
 H         2.1748304101       -0.2287716295       -1.7686622950
 H         2.8198564405        0.5921212332       -0.4555050506
 H         3.3467987432       -1.0106587495       -0.7840675170
 H        -3.0159037289        0.7669484880        1.3767626013
 H        -2.6868487760        0.6076698099       -0.2466900576
 H        -6.0797091151       -0.2948466436        2.5077091854
 H        -6.2245911603       -1.7815134800        3.0808696882
 H        -5.1961986758       -0.1744083713        0.2957510382
 H        -5.8801448387       -1.7945045250        0.3966202817
 H        -4.5857436902       -1.4840334373       -0.7380309916
 H        -4.4875974116       -3.7201763329        1.7706534545
 H        -3.9138747050       -3.5628241114        0.1757481768
 H        -2.7776235705       -3.5109811916        1.6660022181
 H        -4.4933755357       -0.1900739419        4.9545362931
 H        -6.2435828128       -0.2543304689        5.1215102472
 H        -3.4390780836        4.0130245384        3.5636070561
 H        -2.9787592017        4.6528454713        5.1724300215
 H        -5.3037594692        4.6098063795        4.3652802752
 H        -6.0299453713        4.2921245682        5.9368731593
 H        -6.9091043192        3.7838538869        4.5444721123
 H        -5.4490434671        1.0702872800        6.8854809732
 H        -5.9269614443        2.7754244722        7.3405569087
 H        -6.9608087229        1.6818657197        6.4298691522
 H        -1.5353992279        2.1950135454        4.3706264427
 H        -1.2447158425        3.4907814970        3.1839655448
 H         2.8030609005        5.0413561136        4.0851559524
 H         3.5597569847        3.7330815651        5.0196660451
 H         1.6974319332        5.3287175806        6.2907447937
 H         2.4481860977        3.8559052316        7.0435064091
 H         1.0111354506        4.4038582718        7.5562588608
 H         0.0731228878        1.3080590924        5.5799389405
 H         1.3467729343        1.4535744999        6.6011321974
 H        -0.1560505899        2.1303984524        7.1068813115
 H         4.0305085009        2.4514269287        2.7084320003
 H         4.8680133334        3.8920936005        2.9811318485
 H         1.4880240435        3.8174366343       -1.0244255714
 H         1.8862640630        5.3689736797       -1.6144347583
 H         2.4601953729        6.3549852836        0.1232120414
 H         4.0703395690        6.5874536437       -0.7934751025
 H         3.8781518403        6.7257059301        1.0218309950
 H         5.8892521418        5.1661389306       -0.4879780794
 H         5.9722671170        5.1675669002        1.4038115476
 H         5.9786458946        3.7445167915        0.4206942042
 H         2.7172184053        4.4172822442       -3.7583667001
 H         2.5917074524        2.7292677046       -3.1918097748
 H        -1.6646103879        0.4186638751       -5.5526810021
 H        -1.5909962940        0.1751483186       -3.7616676945
 H        -2.1036069727        1.7013459355       -4.6056364437
 H        -1.1740965130        3.8747437392       -5.6312249191
 H        -0.4372602515        3.1717239642       -7.1342201427
 H         0.3351299060        4.4080577008       -6.2326000056
 H         1.6982602198        1.7278148432       -6.7039539789
 H         2.4568906666        3.2149196984       -6.0956893905
 H         2.5374125326        1.7471143655       -5.1304981182
 Na        0.1562681953       -1.4411701655       -2.9373029377
