155

 C        -3.1426177626       -3.4766147500       -5.4888139374
 C        -1.6760246097       -3.2256604722       -5.3629946329
 C        -0.5494570163       -4.2480690827       -5.8472758916
 C         0.7883577148       -4.3629083406       -4.8876051577
 C         1.6776502880       -5.5462299506       -5.1693286063
 C        -1.1276921718       -5.6298408552       -6.0609330632
 C        -0.0450849019       -3.7298531747       -7.1855997890
 O        -1.3239039196       -2.1260183450       -4.9177946324
 O         1.1596716548       -3.5993348909       -4.0135531937
 C         2.4549309201       -5.8818352242       -3.8858723124
 C         1.5020149340       -6.2255259991       -2.7212220131
 C         2.1826158127       -6.8185416789       -1.3050455259
 C         2.4896148410       -5.5825973455       -0.3638580735
 C         1.1783404879       -5.0983073885        0.4023045047
 O         0.3458169424       -6.0172634865       -2.8011369045
 O         3.5955829153       -5.0300790103       -0.3742822216
 C         1.2127605362       -7.7481004858       -0.6019509953
 C         3.4713363744       -7.5920781229       -1.5853136383
 C         1.4946130895       -3.6302600992        0.9277719805
 C         0.9706434507       -2.5225379518       -0.0905264639
 C         1.2054444524       -1.0409769809        0.2793510289
 C        -0.0420638559       -0.1251299713       -0.1569652844
 C        -0.8144723795        0.7686664477        0.8781769926
 C         1.6301215373       -0.6906905929        1.8006657798
 C         2.4040766980       -0.6469089211       -0.5870624759
 O         0.5451679051       -2.8366194266       -1.1957336781
 O        -0.3316367066        0.0591559587       -1.2997337456
 C        -2.2697664072        0.2422079261        0.9203343038
 C        -2.3411865487       -1.2635767199        1.1885421801
 C        -3.7460994223       -1.8695001934        1.5643404432
 C        -4.2877239607       -1.4007564435        2.9262034266
 C        -5.7266329916       -1.0244925025        3.1000631264
 O        -1.3661996394       -1.9814696268        1.1992230136
 O        -3.5937651411       -1.3312542324        3.9382667033
 C        -4.7504422575       -1.4180319630        0.5034605554
 C        -3.6104545944       -3.3996985037        1.6983196105
 C        -5.9140875650       -0.0314896182        4.2736261105
 C        -5.1872238564        1.3411125699        3.9247403180
 C        -5.3213120757        2.5231048916        4.8924166197
 C        -3.7960865873        3.1194298823        5.2927735828
 C        -2.9471606953        3.7888138758        4.2256544330
 C        -6.0750262316        3.7357078595        4.2858740311
 C        -6.0302791340        2.1655953932        6.2379822984
 O        -4.5022829044        1.3969707186        2.8857580245
 O        -3.4380931491        2.9804265462        6.4369703774
 C        -1.4284111279        3.3287249112        4.1107323984
 C        -0.4603629974        4.2213422878        4.8821377815
 C         0.7798323113        3.4544602237        5.5685333398
 C         1.6386813614        2.9260903929        4.4439129805
 C         2.8781093226        3.8229845937        4.1785359104
 O        -0.6441364562        5.4011117514        5.0193780796
 O         1.2495583030        2.0614087344        3.6901658194
 C         1.4280543625        4.4186061204        6.5079465676
 C         0.2032175600        2.1781788531        6.3899495902
 C         3.6388392140        3.4056853242        2.9020203078
 C         2.8865071588        3.7481601462        1.5676815241
 C         3.7180262452        4.6199938374        0.5483430693
 C         3.5663116270        4.0028505692       -0.9031584894
 C         2.1545460890        4.1516671944       -1.6007893854
 C         3.1139356470        6.0488310306        0.6116383712
 C         5.2816369832        4.6635932468        0.8106812724
 O         1.7539757895        3.4681921684        1.2407398386
 O         4.4571382490        3.4512374253       -1.4784031133
 C         2.0766269390        3.2555811699       -2.8943934461
 C         0.7757472695        3.5158097758       -3.5840007203
 C         0.5675841060        2.8061986079       -5.0350626298
 C        -0.0324020102        1.4538583973       -4.5956491519
 C        -1.5011894193        1.2677161844       -4.6929808070
 O        -0.2336273345        3.8921579972       -3.0234423287
 O         0.6444741148        0.5978694214       -4.0600317572
 C        -0.3607958104        3.6827007272       -5.9471564642
 C         1.9969552503        2.7475892132       -5.7276599174
 H        -3.5430208571       -3.0721477320       -6.3895815444
 H        -3.4091936722       -4.4685362876       -5.2518172956
 H        -3.6433436071       -2.9277615632       -4.6509581327
 H         1.1549610320       -6.4088230897       -5.4537284676
 H         2.4138525154       -5.3621004926       -5.9603492541
 H        -1.7473666592       -6.0085945942       -5.1204039445
 H        -0.4045877280       -6.4323585396       -6.1306046740
 H        -1.8279901539       -5.7117641395       -6.9629846421
 H         0.5809246449       -4.4793932476       -7.5724700411
 H        -0.9318644363       -3.5977423382       -7.7808193935
 H         0.4974978350       -2.7897660718       -7.1980938468
 H         3.2170570917       -6.5791214488       -4.1053821022
 H         2.8594605656       -4.9635268494       -3.6371376606
 H         0.4556549864       -5.1822838817       -0.3497577038
 H         0.8190901461       -5.7649110666        1.1655799264
 H         0.2073419732       -7.3350256800       -0.7519469462
 H         1.2658918351       -7.9723335201        0.4963050335
 H         1.2677005914       -8.8561387802       -0.9523818395
 H         4.1666809104       -7.0111615310       -2.1690909465
 H         4.0224440248       -7.8622006164       -0.7708812889
 H         3.2395468622       -8.5712958076       -1.9574396011
 H         2.6316091899       -3.6244274789        0.9763654361
 H         0.9120103452       -3.4245527490        1.9046877423
 H        -0.2918834816        0.8333772206        1.8706510105
 H        -0.7986143317        1.8821186641        0.5381493581
 H         0.8606099109       -0.9396599276        2.5152679634
 H         1.9231129162        0.3141249316        1.7284151298
 H         2.5562539608       -1.2569523327        2.0608763084
 H         2.1883781126       -0.7235674738       -1.6911783786
 H         2.6672503261        0.3824360392       -0.4938649629
 H         3.3214179053       -1.2106844873       -0.4354949158
 H        -2.7967436943        0.6911593207        1.7621584936
 H        -2.7586621092        0.6523282453       -0.0079021040
 H        -6.2032385016       -0.5713124917        2.2351840280
 H        -6.4905706568       -1.8238030609        3.3277650153
 H        -4.9204107406       -0.3502751006        0.5181862482
 H        -5.7552052967       -1.7947021076        0.6499588720
 H        -4.3502900110       -1.5613690469       -0.4641496128
 H        -4.5501837110       -3.6933762129        2.0241773812
 H        -3.4677157058       -3.8197482719        0.7133451179
 H        -2.8149537422       -3.4691923146        2.4602808075
 H        -5.5763865967       -0.4526883640        5.2136148416
 H        -6.9915576094        0.0960524432        4.4311601713
 H        -3.3577119826        3.5394160695        3.2300757070
 H        -2.9066892650        4.8491967987        4.3992453740
 H        -7.0913718093        3.6605506953        4.2938824499
 H        -5.7035675100        3.8259610107        3.2314699173
 H        -5.7670904103        4.6901541506        4.8144419631
 H        -5.4607696840        1.4506240916        6.7670117820
 H        -6.1599028618        3.0529422247        6.9368911639
 H        -6.9650750378        1.6636670057        6.0526053066
 H        -1.2656053840        2.2605518594        4.4433460733
 H        -1.1278549553        3.3303754751        3.0535964519
 H         2.6335288269        4.9052381707        4.1427350272
 H         3.6186243680        3.8419350853        4.9554173764
 H         1.7258669772        5.3106982749        5.9102737126
 H         2.3237887872        3.9330377961        6.9232067863
 H         1.0385168522        4.6939992142        7.4445772485
 H         0.1724828012        1.3515591331        5.7564731286
 H         0.8439089624        1.9302134648        7.1572566758
 H        -0.8191934169        2.2023725669        6.7980488754
 H         3.7904471005        2.2929963318        3.0050668946
 H         4.5940589991        3.8883944213        2.8519894841
 H         1.3546930476        3.8376576626       -0.9404592572
 H         1.9689685972        5.2284728144       -1.8136857673
 H         2.0502039534        5.8907935661        0.4185358879
 H         3.5905791600        6.8575605103        0.0142320017
 H         3.3804160729        6.4306712444        1.5974908799
 H         5.8467292257        5.1082546593        0.0015141297
 H         5.5183210921        5.1952338337        1.7302533430
 H         5.6525528420        3.6849360186        0.7660312459
 H         2.8659107995        3.6184192558       -3.6245236720
 H         2.2349361219        2.2231250933       -2.5237292382
 H        -1.9031319725        1.5621058805       -5.6905136785
 H        -1.9300665013        0.2995022146       -4.4394988448
 H        -1.9328695620        2.0696005454       -4.0178049605
 H        -1.1214274695        4.1703195289       -5.4106791677
 H        -0.8558787446        3.0413284111       -6.7254025417
 H         0.1512785074        4.4399970350       -6.5532097450
 H         1.7568044014        2.4219618932       -6.7577813592
 H         2.4346541066        3.7343933607       -5.7540749343
 H         2.6009773010        1.9978393174       -5.3203933389
 Na        0.2971866994       -1.5455501190       -3.2392309030
