155

 C        -1.6180131911       -5.5333460997       -4.7730001646
 C        -0.9149356651       -4.2344015782       -4.5860472488
 C        -0.2604599098       -3.4534514907       -5.8009865522
 C         1.2702465711       -3.5645793218       -5.2418719306
 C         2.0993218969       -4.8470703412       -5.5263959405
 C        -0.5414125926       -4.2016247452       -7.0973032128
 C        -0.7814680193       -2.0117449953       -5.8797698449
 O        -0.8565968086       -3.7236389640       -3.4755657083
 O         1.7574652904       -2.6615492017       -4.6476950465
 C         3.0195457170       -5.2300089210       -4.3899736608
 C         2.3470793012       -6.0590977470       -3.2846153928
 C         3.1253963935       -6.6524225675       -2.0744422365
 C         3.2521414449       -5.5626435177       -0.9152994552
 C         1.9857602629       -5.4135099916       -0.0411991926
 O         1.1508291190       -6.3428636234       -3.3808108762
 O         3.9512255376       -4.5702375165       -1.1145743890
 C         2.5435229333       -8.0046354403       -1.5764831995
 C         4.5959643842       -6.9771862108       -2.5591287758
 C         1.9132594919       -4.0300630539        0.5638577429
 C         1.5144972180       -2.8189583724       -0.3642597218
 C         1.3231890420       -1.3159998572        0.1824946922
 C        -0.1784396746       -0.7838072474       -0.1035951044
 C        -0.9874094809       -0.0985328633        0.9692028756
 C         1.7131965919       -1.3234939707        1.7363557706
 C         2.2439759053       -0.3145658567       -0.6589507857
 O         1.2782815087       -3.0554066142       -1.5467393091
 O        -0.6858140976       -0.8593654328       -1.2384788598
 C        -2.3601835331       -0.7155434022        1.0014644331
 C        -2.4627133710       -2.1807528388        1.6179183582
 C        -3.8482536556       -2.6295076608        2.2332077299
 C        -4.2075017515       -1.5333137051        3.3677548709
 C        -5.3569451709       -0.4892680760        3.0917304292
 O        -1.4584026071       -2.7270220253        1.9004687964
 O        -4.0070087841       -1.6784256437        4.5334744059
 C        -4.8534303310       -2.7334449359        1.0359362952
 C        -3.7526168372       -3.9548056717        3.0059376749
 C        -5.4410756524        0.7515716443        3.9858367178
 C        -4.5749684308        1.9558890033        3.5341766875
 C        -5.0548781066        3.3874570441        3.9499468685
 C        -3.7948083071        4.3586461047        4.0432003099
 C        -2.8828930666        4.4177451512        2.8303765420
 C        -5.9721140296        3.7630555021        2.8143920111
 C        -5.7848968444        3.3161292653        5.3070562265
 O        -3.6886405270        1.8304230444        2.7260681927
 O        -3.6082193151        4.9004716489        5.0912051624
 C        -1.5727003809        3.6359674489        3.1135798710
 C        -0.7406522925        4.1960098337        4.2234703599
 C        -0.2106728593        3.3235867544        5.4642149036
 C         0.9125820253        2.4039802622        4.8897902870
 C         2.3009011829        2.8839062433        4.6214413758
 O        -0.5194891904        5.3885601251        4.3029466875
 O         0.5521152349        1.3136804692        4.5033698389
 C         0.4183569267        4.3329326685        6.5059973111
 C        -1.4097098541        2.5562865236        6.2118851626
 C         2.7930865355        2.4692113288        3.1997271156
 C         1.9531083672        3.1458998946        2.0914092329
 C         2.4738661789        4.4604142086        1.4438652444
 C         2.5699946007        4.2704663544       -0.0284558440
 C         1.2246712230        4.3571538863       -0.9166872033
 C         1.4828681270        5.6126339337        1.8454682824
 C         3.9586334155        4.8199622830        1.9627093171
 O         0.8535550267        2.6736069731        1.8780833982
 O         3.6589468286        3.9650825772       -0.5260757640
 C         1.4809690319        3.6037515004       -2.2370257944
 C         0.5655923625        3.8534356949       -3.3773074135
 C         0.8257943372        3.0586402413       -4.6551104857
 C         0.1508205689        1.5781762128       -4.3858212264
 C        -1.3244960351        1.5393980961       -4.1626937767
 O        -0.3600195677        4.6579131149       -3.2593377759
 O         0.8488960160        0.5801033064       -4.2863868539
 C         0.1190531388        3.7517203245       -5.9089984009
 C         2.2244519661        2.8183613915       -5.0353426356
 H        -2.4667415054       -5.4721808430       -5.4871304379
 H        -0.8661546061       -6.2584527718       -5.1345351393
 H        -2.0077509027       -5.9169399653       -3.7755075714
 H         1.4626467508       -5.7680593676       -5.7539503651
 H         2.7517177064       -4.7821100784       -6.4972768667
 H        -0.2893837058       -5.2013676323       -6.9588187843
 H         0.1591836564       -3.9702096390       -7.8878085675
 H        -1.5591754922       -3.9357788305       -7.3822658519
 H         0.0022524320       -1.2836257458       -5.8073082214
 H        -1.3703935848       -1.8923753547       -6.7834333917
 H        -1.6027526244       -1.7481653685       -5.0971076661
 H         3.9412424969       -5.7832682077       -4.7244627683
 H         3.4164801927       -4.2859106131       -3.9141359792
 H         1.1448034448       -5.6750083444       -0.6320760306
 H         1.9582052133       -6.0465895833        0.8020425696
 H         1.5184572995       -7.8177766921       -1.4462197124
 H         3.0424952965       -8.0929224844       -0.6562176408
 H         2.7711021563       -8.7442785812       -2.2331011365
 H         5.1457309833       -6.0480126843       -2.8730403049
 H         5.2094873430       -7.2518242364       -1.6635828836
 H         4.7338550424       -7.9080635920       -3.2191285888
 H         2.8970809836       -3.6712712740        0.9588305020
 H         1.2293177816       -4.0363716712        1.4763186338
 H        -0.4199811836       -0.1526521377        1.8945990878
 H        -1.0896203324        0.9678204965        0.7708198119
 H         1.0163870649       -1.8833396213        2.4088295809
 H         2.0633106027       -0.3802390380        2.1323929042
 H         2.6850733186       -1.8881079856        1.7826313897
 H         1.9644156194       -0.1362560673       -1.7103239767
 H         2.2201878664        0.6765789986       -0.2615451967
 H         3.2974851146       -0.5103306761       -0.6342691841
 H        -2.9849636452        0.0757718648        1.5623860829
 H        -2.7722229497       -0.9045377493       -0.0028297314
 H        -5.3187734238       -0.2426676122        2.0782372063
 H        -6.3680790973       -1.0038970466        3.0387028747
 H        -4.8083095487       -1.7877598495        0.4683845910
 H        -5.9190574515       -2.8833807876        1.3889391714
 H        -4.3779537609       -3.5874545457        0.5355765547
 H        -4.8175697119       -4.2738968154        2.9513037327
 H        -3.2197065804       -4.6966184994        2.3336770521
 H        -3.1945060547       -3.7894617541        3.9823791005
 H        -5.1170465944        0.5512815731        5.0284024486
 H        -6.5160352412        1.0342460601        4.0729301246
 H        -3.4080716921        3.9057016013        2.0324138477
 H        -2.7726812321        5.4622370616        2.4687690267
 H        -6.9941421703        3.5786079851        3.0781038631
 H        -5.6762427641        3.1604962127        1.8969084927
 H        -5.8816508053        4.8041576932        2.6715009390
 H        -5.1732638474        2.9401097025        6.0726380050
 H        -6.0698517062        4.3585485032        5.6384072744
 H        -6.6851434163        2.7348102003        5.2213548698
 H        -1.7546721303        2.5904072397        3.2291654991
 H        -1.0526539315        3.7677782930        2.1761986610
 H         2.4728614627        3.9445657576        4.8495769839
 H         2.8620249159        2.3191070927        5.3209492483
 H         0.9906051482        5.0341573220        5.8343160629
 H         0.9323211057        3.8278608494        7.2984336290
 H        -0.3827702231        4.9813826004        6.8768922096
 H        -2.0033498193        1.7637062897        5.6075642329
 H        -1.0557416945        2.2030569177        7.2313659791
 H        -2.1730563258        3.3328599266        6.2624497355
 H         2.8743555692        1.3575384791        3.1179813040
 H         3.8330254976        2.7402026182        3.1718345700
 H         0.3459576572        4.1365450191       -0.3516739807
 H         0.9653506960        5.4248150667       -1.1671581797
 H         0.5038224854        5.5615580008        1.4525490332
 H         1.9268444141        6.5503954182        1.6006553686
 H         1.4554438298        5.6907083256        2.9435509965
 H         4.3203297663        5.7536712948        1.4861258211
 H         4.1197835013        5.0554988947        3.0472756369
 H         4.5865116643        4.0081724660        1.5847745387
 H         2.5824851694        3.8168481695       -2.4793046673
 H         1.3691878458        2.5417457504       -2.0315921971
 H        -1.7115374282        2.5040785860       -4.1364345893
 H        -1.7476431662        1.1587333113       -5.0306911420
 H        -1.6719416906        1.0143261150       -3.2415076133
 H        -0.9279734824        3.9231679843       -5.8104772000
 H         0.4312926522        3.3534077245       -6.8904269893
 H         0.5841978856        4.7520380166       -5.9046221112
 H         2.4148992397        2.0632673052       -5.8567997249
 H         2.8206924827        3.7254734377       -5.2343550334
 H         2.7476667036        2.3700111509       -4.2331380872
 Na        0.3601767624       -1.5801426727       -3.2960785751
