155

 C        -1.2981614761       -4.8047657070       -3.9035386730
 C        -0.7330717617       -3.6464876065       -4.7088930482
 C         0.2535797583       -3.6303336558       -5.9406323989
 C         1.7070104965       -3.1334469490       -5.3636743234
 C         2.9188694336       -3.7950663977       -5.9581004404
 C         0.2946549110       -5.0395702812       -6.5306974835
 C        -0.3539867081       -2.6658712385       -7.0230775049
 O        -1.0795769525       -2.5194716414       -4.2787066128
 O         1.7673716327       -2.1382451727       -4.6560126953
 C         3.8387963558       -4.2245562110       -4.7754049250
 C         3.1034836473       -5.2049767762       -3.9538978691
 C         3.8941843542       -5.9891488806       -2.8588078201
 C         3.6152797890       -5.2890629452       -1.4676058344
 C         2.3532740428       -5.7519810704       -0.7893008025
 O         1.8899852709       -5.2150531414       -4.0629277974
 O         4.1768094464       -4.2211302060       -1.2222706186
 C         3.5147295492       -7.5214470715       -2.9833553523
 C         5.4401528286       -5.8799354912       -3.0319404895
 C         1.9105813079       -4.8310793175        0.4115497953
 C         1.4150339130       -3.4611126602       -0.1142822431
 C         1.6540286024       -2.1369201223        0.5235251529
 C         0.2475644098       -1.1889406277        0.5953234520
 C        -0.1615541409       -0.4557808158        1.9625399948
 C         2.3345583498       -2.1626876129        1.8938510485
 C         2.5475198696       -1.2397285669       -0.4378205392
 O         0.8327108786       -3.5181753422       -1.2225093676
 O        -0.3800079676       -0.9940118908       -0.4368795083
 C        -1.7420924272       -0.4039679470        2.1990086663
 C        -2.2276194763       -1.8124905726        2.3659503784
 C        -3.7521414393       -2.0972395108        2.9225335457
 C        -4.3083611865       -0.8653449127        3.5883428566
 C        -5.7537771015       -0.5259023766        3.0986728346
 O        -1.6520618321       -2.8515606424        1.9786910249
 O        -3.6942134990       -0.1706047319        4.3558127083
 C        -4.5262828999       -2.7451423490        1.7283796913
 C        -3.4315469343       -3.1543951514        4.0225325330
 C        -6.3632918194        0.7818776405        3.7545503930
 C        -5.9027283877        1.9890022977        2.8099584072
 C        -6.1513919682        3.4563611904        3.3845301965
 C        -4.7415025512        3.7238429614        3.9497573056
 C        -3.6591673383        4.4165949443        3.1545414577
 C        -6.5401761933        4.4616715928        2.2757221486
 C        -7.1807511522        3.6418233877        4.5450505411
 O        -5.5235688276        1.8407650969        1.6465533152
 O        -4.6043424187        3.4744656007        5.1091425609
 C        -2.3623375935        3.4951581063        3.1549247355
 C        -1.2686631866        3.8284662595        4.1915928573
 C        -0.8058544453        2.8258122218        5.3296249298
 C         0.5249855802        2.1571647122        4.8305106675
 C         1.7510752370        3.1059990351        4.7927479432
 O        -0.6909710207        4.9143107765        4.1673346041
 O         0.6061654264        0.9909466074        4.4461259128
 C        -0.6069182769        3.5630284263        6.5964134186
 C        -1.8066675371        1.6972654146        5.7853218978
 C         2.5132156081        2.6794707521        3.4453453168
 C         1.8032012839        3.1937816917        2.1502188964
 C         2.2375723589        4.6761810901        1.5850872222
 C         2.5533584371        4.4222560444       -0.0194839837
 C         1.4076339194        4.1885616612       -1.0677608264
 C         0.9901062502        5.6462054966        1.6778056056
 C         3.4838442263        5.2121912865        2.2424767593
 O         0.9420570161        2.5015146221        1.5838247568
 O         3.7297142065        4.2564100651       -0.2915575214
 C         2.0012043000        3.9046092061       -2.4334808299
 C         0.9046484671        3.5273944483       -3.4933316368
 C         1.0664648838        2.4796347442       -4.6349810600
 C         0.4693523701        1.1804258877       -3.8068418533
 C        -0.9747500118        1.2014893555       -3.5595888056
 O        -0.2086500805        4.0577719686       -3.3350969384
 O         1.2744721317        0.3943543369       -3.3781470253
 C         0.2337954726        2.8768546350       -5.9248993182
 C         2.4911059666        2.2514410901       -4.9893344934
 H        -1.9221814284       -5.5712034530       -4.4132662691
 H        -0.4291753233       -5.4040866730       -3.4950580374
 H        -1.8601369834       -4.4348208519       -3.0554558468
 H         2.5857380459       -4.6666417982       -6.4658695418
 H         3.3936521371       -3.2034646786       -6.6559293050
 H         0.9933997006       -5.7445218630       -5.9809785227
 H         0.6706888906       -5.2220908216       -7.5427208613
 H        -0.6991022424       -5.4659530509       -6.6276183549
 H         0.5181297431       -2.2413457545       -7.6227083630
 H        -1.1361551281       -3.1561464392       -7.6369318158
 H        -0.7641603028       -1.7852913307       -6.6370720601
 H         4.8049740556       -4.5944551004       -5.0101890407
 H         3.9486182946       -3.4039645586       -4.1462168787
 H         1.5461801763       -6.0539123354       -1.4793127546
 H         2.4998071122       -6.7381190873       -0.1888787013
 H         2.4266489936       -7.6500649617       -2.6044354647
 H         4.1362760790       -7.9664066825       -2.1718558332
 H         3.6537580839       -7.8839754343       -4.0168647593
 H         5.9625478455       -4.8633948691       -2.9629958550
 H         5.8464700626       -6.6001279376       -2.3908136026
 H         5.7263079288       -6.2340843451       -4.0571442015
 H         2.8357733599       -4.7032378847        0.9156408147
 H         1.0835470340       -5.1885340190        1.0819065501
 H         0.2276353098       -0.8886077245        2.8784727110
 H         0.3183859823        0.6350217435        1.8470287889
 H         1.7237891079       -2.8836565637        2.4580132459
 H         2.2836694004       -1.1864717351        2.4204170115
 H         3.3630336361       -2.5639959285        1.8901651593
 H         2.1665679532       -1.2086253467       -1.4171391638
 H         2.7592976603       -0.2013122488       -0.1806862528
 H         3.5396676679       -1.7490217196       -0.6217197218
 H        -1.8733188168        0.2644446626        3.0583185921
 H        -2.3406778768        0.0910482698        1.4137128441
 H        -5.6002633561       -0.1787040645        2.0794793645
 H        -6.3901787547       -1.4921955605        3.1446132931
 H        -4.9339895641       -1.9162784914        1.0452390032
 H        -5.4581414281       -3.2911301510        1.9693530026
 H        -3.8664640965       -3.4654852523        1.1508095777
 H        -4.2749538429       -3.4246808534        4.5832931319
 H        -3.1255519190       -4.0940927631        3.4921449288
 H        -2.5594957033       -2.7138196291        4.5494999858
 H        -5.9609276706        0.9425523523        4.7599658092
 H        -7.4834900146        0.6919299326        3.8471420105
 H        -4.0176792625        4.7387234771        2.1656767815
 H        -3.3646242594        5.2719720909        3.7051741611
 H        -7.4717633593        4.9782487323        2.6158278130
 H        -6.8320611919        4.0585120889        1.3471136491
 H        -5.8253653476        5.2792538049        2.0045626670
 H        -6.7992461928        3.2775272248        5.5247612453
 H        -7.3630807631        4.6488070055        4.6084668041
 H        -8.1004326039        3.1348564138        4.2590140230
 H        -2.7898300844        2.4543643451        3.0887573535
 H        -1.8591237753        3.7182970361        2.2086572403
 H         1.4640641056        4.1743867990        4.9684658613
 H         2.3439249824        2.7689616837        5.5850762949
 H        -0.1195777478        4.4771049643        6.3972353663
 H        -0.1049854833        2.8939950319        7.3970945281
 H        -1.6108292883        3.8611078332        6.9813809287
 H        -1.8434998241        0.7753839234        5.1668196828
 H        -1.5034369033        1.4703790825        6.8289551940
 H        -2.8636852795        2.1841559640        5.7279783120
 H         2.5574711309        1.5426904447        3.3652565233
 H         3.5511191984        3.0240878950        3.4675959453
 H         0.8317790082        3.2691894659       -0.7300168819
 H         0.8536396103        5.0538584845       -1.1312126124
 H         0.2322014882        5.3769036565        0.9718032216
 H         1.2863641499        6.6672485173        1.3830096252
 H         0.5471277688        5.8532182178        2.5646431170
 H         3.5684781933        6.2897929095        2.0892221886
 H         3.3967856296        5.2356637152        3.3268304691
 H         4.3441120350        4.6255311127        1.8249622393
 H         2.5021807194        4.8311367553       -2.8123669654
 H         2.8472450508        3.2453239002       -2.4899685493
 H        -1.4951735346        0.9710333507       -4.5011691491
 H        -1.1828710403        0.4730103844       -2.8087075230
 H        -1.3851729796        2.1379643760       -3.3086461846
 H        -0.8869044417        2.9560003330       -5.7633937283
 H         0.4714284973        2.1860374498       -6.7136557613
 H         0.6119008540        3.8335759087       -6.3207086893
 H         2.6545813137        1.5893063614       -5.7961312251
 H         3.0216392230        3.1909842915       -5.1938717831
 H         3.0707334458        1.8686553597       -4.0820886292
 Na        0.4659219539       -1.6053886766       -2.5341907714
