155

 C        -1.1526099306       -4.6779948768       -3.8312762010
 C        -0.9211185899       -3.4383873587       -4.7419390753
 C         0.1480994221       -3.4233033371       -5.9116824476
 C         1.6741774197       -3.2196782773       -5.3533862810
 C         2.9460314892       -3.7405288876       -6.0988890809
 C        -0.0060736743       -4.7712065567       -6.6000690979
 C         0.0029310145       -2.0921126451       -6.7639343022
 O        -1.3761055743       -2.3361124879       -4.4169663355
 O         1.8946523829       -2.5662059027       -4.2992661335
 C         3.9372646945       -4.2230167660       -5.0777026903
 C         3.3394239509       -5.0419989610       -3.8620205602
 C         4.2692653929       -5.6988939909       -2.7995971464
 C         3.7358396879       -5.1365795378       -1.3728041840
 C         2.4031875774       -5.6089828459       -0.8542311026
 O         2.1664436450       -5.3408879634       -3.8791947832
 O         4.3280215662       -4.3857383564       -0.6362944477
 C         3.9837126560       -7.2947014191       -2.9267830225
 C         5.7698317703       -5.2748330450       -3.0026232525
 C         1.7299794098       -4.8280126753        0.3160297288
 C         1.4047103615       -3.4268694367       -0.2836058066
 C         1.8009431965       -2.2124426201        0.5328865619
 C         0.6394508644       -1.1126233926        0.5482723647
 C        -0.1146168056       -0.6993262583        1.8571424195
 C         2.3537380768       -2.3840399451        1.9258210445
 C         2.9125194710       -1.5304117566       -0.3855727945
 O         0.9026902768       -3.3824926764       -1.3977558579
 O         0.2859979478       -0.6914151739       -0.5607107524
 C        -1.6043096577       -0.9153602448        1.6199334444
 C        -2.1030905763       -2.0815867566        2.5376530145
 C        -3.6158593635       -2.0408341008        2.9079335355
 C        -4.4244591313       -0.5833285382        3.0481251905
 C        -5.9583606001       -0.6445575506        2.9762064026
 O        -1.3216734279       -2.8218209789        3.0634159984
 O        -3.8560431911        0.5147560461        3.1106893754
 C        -4.3608275227       -2.7824995744        1.8033007201
 C        -3.8635890352       -2.8385954266        4.3351574591
 C        -6.5648950915        0.6601363148        3.7002930331
 C        -6.4902971654        1.8200902816        2.6698358971
 C        -6.3804803901        3.3576270956        3.1598310415
 C        -5.0021760643        3.4901513880        3.9557080222
 C        -3.7033052285        4.0267298399        3.2160301779
 C        -6.5623190137        4.1485252590        1.8686772289
 C        -7.6137726930        3.5059218787        4.2011563994
 O        -6.5511342247        1.5426042891        1.4972138907
 O        -4.8238238227        3.0174294652        5.0736669758
 C        -2.5483463598        3.0844682126        3.6008122179
 C        -1.4363367974        3.7252330802        4.5176238794
 C        -0.7365038978        2.7002497521        5.5508204286
 C         0.5099468267        2.2150151635        4.8348253805
 C         1.7069594336        3.1687759220        4.6167678154
 O        -1.0848649785        4.8689103122        4.4132375764
 O         0.4956983288        1.0573710183        4.4215820268
 C        -0.2935330411        3.4985372630        6.8120055601
 C        -1.5971271452        1.5790327256        6.0289176067
 C         2.5125362314        2.7787689388        3.4205556976
 C         1.7780015299        3.3086562277        2.1003177788
 C         2.1062706210        4.7330010195        1.5348626993
 C         2.5781653760        4.4791301930        0.1209768713
 C         1.4532342423        4.2731933039       -0.9281180385
 C         0.8241013717        5.5803095641        1.5614784097
 C         3.1791697599        5.4233518751        2.4288935126
 O         0.9963636903        2.4901285935        1.5984633787
 O         3.7410720589        4.4285221924       -0.1980092000
 C         1.8478527542        3.4987000368       -2.1655829481
 C         0.9242057382        3.5925716708       -3.3328490121
 C         1.0329744832        2.4388309903       -4.5348761559
 C         0.5726818149        1.1541164732       -3.9796234732
 C        -0.9108537466        0.8748661129       -3.8573621154
 O         0.0784708199        4.4251093462       -3.4839597588
 O         1.3655896173        0.5292147843       -3.2084814945
 C         0.1790490464        2.7601238749       -5.7555962020
 C         2.5251765114        2.2755840111       -5.0599093345
 H        -0.8857872128       -4.4281071399       -2.7802184614
 H        -2.2085426635       -5.0856783893       -3.7857810696
 H        -0.4316840213       -5.4596829812       -4.0396779514
 H         2.6829001735       -4.5446086615       -6.8214123591
 H         3.5028176374       -2.9947023566       -6.7306639645
 H         0.3586677581       -5.6390571163       -5.9902071536
 H         0.5853420855       -4.8150265487       -7.5905158930
 H        -1.0475411839       -5.1499942975       -6.7839151555
 H         0.5662917620       -2.1561642891       -7.6870631157
 H        -1.0225544071       -1.9866054587       -7.1496662969
 H         0.3288427288       -1.2033854839       -6.1316166585
 H         4.7234839553       -4.8064796287       -5.5072704029
 H         4.4845521508       -3.4080421039       -4.6861053056
 H         1.7353016404       -5.6048179071       -1.7147371238
 H         2.3471372616       -6.6222161465       -0.5709525253
 H         2.8326664806       -7.5105658365       -2.9226995361
 H         4.5303445846       -7.7423803327       -2.0711492432
 H         4.4684630094       -7.6419330751       -3.9327840249
 H         5.9456778660       -4.2883302783       -2.7097450351
 H         6.3156461363       -5.7583168912       -2.1644275738
 H         6.2545969678       -5.6602822679       -3.8205851561
 H         2.4505121242       -4.7808779081        1.1412260106
 H         0.8423178035       -5.2803414386        0.7131264868
 H         0.0298916150       -1.5031862270        2.6299548740
 H         0.1278001769        0.3075316493        2.1186393495
 H         1.4937716197       -2.8685382515        2.4536298964
 H         2.6424491668       -1.4604286468        2.4028916291
 H         3.2455991989       -3.0861706085        1.9271160859
 H         2.6632846036       -1.2637504417       -1.4026148110
 H         3.2330346472       -0.6007839327        0.1100058280
 H         3.8448957056       -2.1174727866       -0.3819773714
 H        -2.0996675147        0.1234853876        1.6562503865
 H        -1.7603947489       -1.2658992399        0.6297461357
 H        -6.2185052052       -0.7353431689        1.8657572955
 H        -6.1796525707       -1.5416348767        3.5198755302
 H        -4.3291278681       -2.3462500950        0.7883225787
 H        -5.3467947595       -3.2052880853        2.1286041111
 H        -3.7775932805       -3.7143320807        1.5407552219
 H        -4.8723227867       -3.1856844379        4.2123087168
 H        -3.1336904053       -3.6183574582        4.4759078667
 H        -3.8857852695       -2.2476834389        5.2093490465
 H        -5.8507787076        0.7676112315        4.5642189119
 H        -7.5281081243        0.6077715007        4.1706487743
 H        -3.7322565937        4.1457326895        2.1478301992
 H        -3.5194689552        5.0738984182        3.5576101546
 H        -6.8057848147        3.4513592114        0.9186073725
 H        -5.6914780397        4.7627583886        1.6453756955
 H        -7.3627452324        4.8529208795        1.9074605636
 H        -7.4036663518        2.8772417454        5.0275458071
 H        -7.7348485565        4.5531578706        4.5437836677
 H        -8.5386186276        3.2534665805        3.7175555656
 H        -2.9181428174        2.2153789886        4.1430696406
 H        -2.0634731797        2.7951519129        2.5982347576
 H         1.3019718621        4.1786724034        4.6137973041
 H         2.3164412335        3.0967799202        5.5926312756
 H        -0.2237830728        4.5439673828        6.4184944724
 H         0.6321313149        3.3471705697        7.3586947032
 H        -1.1727259279        3.4600168055        7.5449626239
 H        -1.7342211063        0.7492102406        5.3723390930
 H        -1.0990443814        1.0994289611        6.9022222272
 H        -2.6113101507        2.0209169932        6.1978319315
 H         2.6365016221        1.7019703906        3.4906338531
 H         3.5396323145        3.1700784706        3.5100023891
 H         0.5339218756        3.8630822112       -0.4213102492
 H         1.0969049317        5.3445616232       -1.1415370323
 H        -0.0542702339        5.1875062345        1.0125825807
 H         0.9666246724        6.5533482787        1.1985459593
 H         0.4005906616        5.4905310754        2.5708407011
 H         3.2083607740        6.4727256921        2.1255143225
 H         3.1514301430        5.2116854694        3.4937776083
 H         4.1879051925        5.0314966117        2.1060376829
 H         2.8290775262        3.7402279229       -2.5334948619
 H         1.8479180096        2.3902913167       -2.0022854476
 H        -1.2235243940       -0.0417574704       -4.3849530552
 H        -1.1356439168        0.5782878900       -2.7876843524
 H        -1.5488033500        1.6657096647       -4.1122896875
 H        -0.7399257507        3.1434898595       -5.2664332803
 H         0.0617437795        1.9848795139       -6.4650367878
 H         0.4496990862        3.7235083316       -6.2776329638
 H         2.6472284139        2.2233490863       -6.1897026171
 H         3.1431452687        3.1274482722       -4.7590715596
 H         2.9166843314        1.3822842360       -4.5942109594
 Na        0.5195407167       -1.5473006795       -2.8485295668
