155

 C        -1.1512433539       -4.6558582881       -4.0089382459
 C        -0.6833616614       -3.3309814045       -4.6265141787
 C         0.2485410270       -3.2714405640       -5.8956688868
 C         1.6473784159       -3.3728233208       -5.2443503945
 C         2.8067271189       -4.0670284631       -5.9348059978
 C        -0.1004464358       -4.4986086703       -6.7592227283
 C         0.1420875780       -1.9396161712       -6.6844156518
 O        -1.0417957197       -2.2930631827       -4.0879070318
 O         1.8130513927       -2.5792445494       -4.3130003970
 C         3.9605368762       -4.4491102716       -4.9873216357
 C         3.4859119471       -5.3910723555       -3.8382003258
 C         4.4975993390       -5.6948920933       -2.7365585083
 C         3.8665799219       -5.3006807772       -1.3625012604
 C         2.4813361270       -5.7592559144       -0.9465343969
 O         2.3623783402       -5.8929157880       -3.8506617296
 O         4.3587428732       -4.4035334697       -0.7179739444
 C         4.7347283830       -7.2654872897       -2.6611992656
 C         5.9214709471       -5.0612265267       -2.8914827694
 C         1.9408551950       -4.9314125095        0.2694852645
 C         1.5745045676       -3.5656631191       -0.4246799682
 C         1.9488528243       -2.2141580503        0.3137097918
 C         0.6685333123       -1.2198477981        0.4527784871
 C        -0.0237899236       -0.8886718890        1.7580066355
 C         2.3716653078       -2.5172319497        1.8832550092
 C         3.0992239923       -1.4749675375       -0.4011072423
 O         0.9512525433       -3.4240741967       -1.4673002494
 O         0.2091014495       -0.7531768776       -0.5951313755
 C        -1.5647467614       -0.9640090039        1.5893184917
 C        -2.2244828269       -1.7032485753        2.8442889367
 C        -3.7262137918       -2.0363765356        2.8660288261
 C        -4.5861114366       -0.6665828431        2.8200009723
 C        -6.1120238075       -0.8105009434        3.1571700001
 O        -1.4399565621       -2.1380007447        3.6731297128
 O        -4.1340601168        0.3743278712        2.4513735971
 C        -4.2329328329       -2.9959902651        1.6766843547
 C        -4.0124758549       -2.8405557016        4.1664396113
 C        -6.8062915425        0.6120603356        3.5008173005
 C        -6.5845892280        1.7152095749        2.4798731356
 C        -6.3762436762        3.1754041196        3.0968068025
 C        -5.0925658677        3.2106312657        3.9510885750
 C        -3.7336461546        3.4158871457        3.1676057718
 C        -6.4307570361        4.1853387334        1.8905042922
 C        -7.6081232726        3.4593994782        4.0031729161
 O        -6.8139882986        1.5422801100        1.3057374558
 O        -5.1092549014        2.9143967659        5.1233532165
 C        -2.5357867744        2.6377926310        3.7891254942
 C        -1.6893296538        3.5160484585        4.7579263583
 C        -0.6753742720        2.7778728762        5.7639057719
 C         0.5467943295        2.2288304722        4.7809577448
 C         1.7248016763        3.1442132040        4.6397805320
 O        -1.8008627597        4.7191022201        4.6752579715
 O         0.4699307426        1.1865761148        4.1255312898
 C        -0.1587976763        3.8487696575        6.8324357389
 C        -1.3471625498        1.5888947934        6.4747025731
 C         2.5085704456        2.7547642165        3.3872772156
 C         1.7439272577        3.2868483002        2.1457576710
 C         1.9507032017        4.7941479169        1.6275390003
 C         2.4805238556        4.5283772036        0.1652324855
 C         1.3883429447        4.1435821563       -0.9436826521
 C         0.6185678066        5.4756041434        1.5888824532
 C         3.0331780924        5.5775214846        2.4217971103
 O         0.9002920785        2.5589835067        1.6180254602
 O         3.6753672719        4.4922845301       -0.0812073574
 C         2.0618266669        3.6788085549       -2.1973267223
 C         1.0705086397        3.8618340035       -3.3612588564
 C         1.1005938629        2.7150812149       -4.5888488066
 C         0.4581472080        1.4243183720       -4.0483277634
 C        -1.0200083036        1.2398396812       -4.1681286790
 O         0.2154005935        4.7179902614       -3.4508654251
 O         1.1894446732        0.5696859640       -3.5310400822
 C         0.2138428516        3.2804089889       -5.7166428540
 C         2.4847646794        2.5376238444       -5.0706302805
 H        -0.4829619201       -5.0066173944       -3.2233387437
 H        -2.1677085244       -4.5393823037       -3.5426053059
 H        -1.2168339225       -5.4476698050       -4.7140500741
 H         2.4294316993       -5.0153370211       -6.2652539409
 H         3.1223369322       -3.4416293959       -6.7547348893
 H         0.1231423735       -5.4119806067       -6.1605207445
 H         0.4412563399       -4.4995140490       -7.7193888103
 H        -1.1430713353       -4.6261274673       -6.9914711911
 H         0.8871715619       -1.8904608468       -7.4990479689
 H        -0.8619060811       -1.9727700651       -7.0963979482
 H         0.2420695416       -1.1182723795       -6.0012489303
 H         4.6815686473       -4.9431577598       -5.5825197987
 H         4.4617333058       -3.6683001113       -4.5455572874
 H         1.7537059384       -5.5606790441       -1.7516126491
 H         2.5399820836       -6.8679615409       -0.8929783246
 H         3.7299944874       -7.8559844751       -2.5263607752
 H         5.6128797750       -7.5410871649       -1.9648155044
 H         5.1349359368       -7.5660814197       -3.6587705714
 H         5.9364229856       -3.9322177546       -2.6968034794
 H         6.6356478310       -5.4315966428       -2.1492263359
 H         6.2698916753       -5.2666244868       -3.9194979488
 H         2.7177969565       -4.7806921635        0.9981056509
 H         1.1425209888       -5.4642810794        0.7883537729
 H         0.1640633503       -1.6953490416        2.5266960037
 H         0.2789137080        0.1719526590        1.9352670142
 H         1.6525723055       -3.0344701321        2.4865261998
 H         2.5605784091       -1.5780013567        2.2906800133
 H         3.2947577640       -3.1101587684        1.9407336634
 H         2.8118523875       -0.9354919607       -1.2672372678
 H         3.4818326067       -0.7042431802        0.2846909672
 H         3.9917730209       -2.0833560726       -0.7201958874
 H        -1.9817557580        0.1136264948        1.3786447605
 H        -1.6913240081       -1.4871824633        0.6850052455
 H        -6.6462408418       -1.3075041978        2.2791111233
 H        -6.3214029422       -1.4659138630        4.0111366902
 H        -4.1178301383       -2.6606176659        0.6356813623
 H        -5.2857206856       -3.2344506083        1.6804689691
 H        -3.7097056569       -3.9746541563        1.7153115139
 H        -5.0122817026       -2.6167201948        4.4618141996
 H        -3.9718000036       -3.9520879341        3.9857560665
 H        -3.4749360154       -2.5427599259        5.0494937223
 H        -6.3065795951        0.9354744759        4.4626170977
 H        -7.8168446560        0.5276024992        3.8612971667
 H        -3.9213677466        3.0955132118        2.1695113158
 H        -3.4500676453        4.4768046997        3.0704444646
 H        -7.0404504480        5.0675939421        2.2111559218
 H        -6.9225923094        3.7678022958        1.0084242597
 H        -5.4335272461        4.5734663213        1.5985346564
 H        -7.7536252927        2.6788149761        4.7590323024
 H        -7.5759808590        4.4168781454        4.4945938018
 H        -8.4547158888        3.3867276212        3.3243987413
 H        -2.8986046426        1.7748293249        4.3336964243
 H        -1.7200004488        2.4501837409        3.0412670982
 H         1.4630229247        4.1790855783        4.5072141115
 H         2.3361637935        3.1156245466        5.5697159343
 H         0.6273717651        4.4102331228        6.4040368629
 H         0.2376226552        3.4727448253        7.8003855713
 H        -0.9754985728        4.5012624275        7.2471827556
 H        -1.3251599072        0.5998894947        6.0283438911
 H        -0.7913698298        1.5291063695        7.4520617109
 H        -2.3855308666        1.7810742935        6.9577201620
 H         2.6872021643        1.6644238409        3.2879237885
 H         3.4929492375        3.2413230837        3.5899390694
 H         0.5654459681        3.5316294402       -0.4506869875
 H         0.7524610084        5.0473352145       -1.1197771923
 H        -0.1681680573        4.8574282274        1.1156726209
 H         0.6107129617        6.4564316769        1.1599548604
 H         0.3197312282        5.6181635476        2.5875738834
 H         3.0975285741        6.4945663395        1.8577298770
 H         2.7758427594        5.7612432627        3.4460645128
 H         4.0639896642        5.0899018508        2.3430446182
 H         2.9009699356        4.2912287868       -2.3665280910
 H         2.2396139106        2.5834295260       -2.1122230761
 H        -1.3080696151        1.1502403990       -5.2012171285
 H        -1.3858260131        0.3287667863       -3.7300525450
 H        -1.4299891877        2.0718395215       -3.7212677077
 H        -0.8525399866        3.5819519246       -5.4990624528
 H         0.1349176178        2.5076771421       -6.4092656216
 H         0.8156604546        4.0999396884       -6.2069135926
 H         2.4320727775        1.6456655690       -5.7042830149
 H         2.8183509539        3.3920361461       -5.6108380533
 H         3.1330576765        2.2288088848       -4.2652974510
 Na        0.5935353273       -1.5216603218       -2.6226275043
