155

 C        -1.2682704436       -4.6785975756       -4.1036950834
 C        -0.7389373002       -3.3665643272       -4.6446471337
 C         0.2407519509       -3.2996724556       -5.8545538801
 C         1.7609463131       -3.3528874032       -5.2717459753
 C         2.7872482701       -4.2477379296       -5.9278913786
 C        -0.0259489521       -4.4411808604       -6.8573795613
 C         0.0558985696       -1.8412679221       -6.5012617141
 O        -1.1357097089       -2.3514845213       -4.0712442914
 O         2.2041011899       -2.6390851086       -4.3714587607
 C         3.9896322871       -4.5142815959       -5.0654126236
 C         3.5958332903       -5.5395788903       -3.8829807950
 C         4.5855617715       -5.7485317390       -2.6999330690
 C         3.9731297361       -5.1771852976       -1.3142490781
 C         2.6536035365       -5.7755797800       -0.7986513346
 O         2.5912424580       -6.2090306304       -3.8411043493
 O         4.6112447523       -4.3056897577       -0.7766276060
 C         4.8422756530       -7.3354502121       -2.4429761579
 C         5.9318112289       -5.0674381972       -2.9635072567
 C         1.8710074940       -4.9359309843        0.2012181869
 C         1.4775516088       -3.5736962771       -0.3657982979
 C         1.8662634662       -2.2790010280        0.5166120276
 C         0.5620173168       -1.3313039099        0.5063701017
 C        -0.1568225193       -0.9612995868        1.8278438527
 C         2.5923903288       -2.5003615691        1.9056633715
 C         2.9101036164       -1.5175924335       -0.3981615223
 O         1.0202724210       -3.4197977700       -1.5083591241
 O         0.1113898201       -0.8698597836       -0.5115861182
 C        -1.7397501421       -0.9715114650        1.7496678940
 C        -2.2235160738       -1.6144671633        3.0018599277
 C        -3.7614129676       -2.0833783179        2.8080673799
 C        -4.7017523518       -0.7703002317        2.7555187914
 C        -6.2154278513       -0.7696851104        2.8413195334
 O        -1.5998189560       -1.8076837681        4.0041044016
 O        -4.1266882556        0.2429130688        2.3082593804
 C        -4.0649536611       -2.8099850503        1.5538256794
 C        -4.0425416950       -2.8856271917        4.1828474638
 C        -6.6983978653        0.5377482265        3.4791022098
 C        -6.7088248034        1.6886226950        2.4564957118
 C        -6.4221539560        3.2289876244        3.0524989759
 C        -5.0449685049        3.0868299904        3.9102051818
 C        -3.6931079117        3.1009359053        3.1655331038
 C        -6.1384293806        4.1686492231        1.8807910414
 C        -7.6268181456        3.5503228826        4.0145201819
 O        -6.7319079417        1.3959850628        1.2876406769
 O        -5.0479981574        2.7571808312        5.0806265938
 C        -2.5847825989        2.3864991878        3.9271900688
 C        -1.8052077450        3.3566493089        4.8501643627
 C        -0.7219700534        2.8304398951        5.8283457121
 C         0.4029673135        2.2710549558        4.8585789287
 C         1.6438861681        3.1231341206        4.7120555892
 O        -2.0759630563        4.5218735945        4.8674932275
 O         0.2093780313        1.2263672111        4.2789129270
 C        -0.1984987926        4.0163605536        6.5531928445
 C        -1.2114351564        1.5850710393        6.6203420178
 C         2.5554766152        2.8617728504        3.4264799124
 C         1.7379136651        3.2578920969        2.2072411664
 C         1.8768195545        4.7601528914        1.5687595827
 C         2.5411102683        4.4870992738        0.1013224723
 C         1.4097381025        4.0856665565       -0.9106103100
 C         0.5349259568        5.4892313826        1.5702758375
 C         2.8616734065        5.5959928856        2.4320461748
 O         0.9127935141        2.5179214618        1.6966818363
 O         3.7376357489        4.5949438523       -0.1286889086
 C         1.9842480042        3.7195138071       -2.2609873567
 C         0.9805005227        3.9754943055       -3.4310806847
 C         1.0902802832        2.9545678570       -4.7140336898
 C         0.4476146435        1.6027597878       -4.2305676135
 C        -1.0882003869        1.5060357935       -4.1130994071
 O         0.1990478377        4.8868580131       -3.4522428182
 O         1.1269432919        0.6973849418       -3.7376434844
 C         0.3072954150        3.5185813958       -5.9698878423
 C         2.6066606014        2.6810874135       -5.0060202510
 H        -0.4916878455       -5.4781147868       -4.0609925995
 H        -1.6045883860       -4.5499688928       -3.0928379705
 H        -2.1489516516       -5.1190794767       -4.6737240132
 H         2.3585829295       -5.2234271346       -6.3353716764
 H         3.1598012473       -3.5085729698       -6.7376296556
 H         0.1003632005       -5.4574662437       -6.4735985601
 H         0.4486736353       -4.2872173113       -7.8642702929
 H        -1.1603500893       -4.3975088942       -7.1165293998
 H         0.6997616764       -1.7471787515       -7.3686570284
 H        -1.0264320500       -1.6723903198       -6.6716667308
 H         0.3694371060       -1.1022880925       -5.6948654750
 H         4.7684288332       -4.9378062239       -5.7732276757
 H         4.4022839034       -3.5407465768       -4.5813299336
 H         2.0181033678       -5.6773603464       -1.7011337339
 H         2.7419742427       -6.8265588033       -0.5974764723
 H         3.8883202190       -7.8324322412       -2.4752666095
 H         5.3072003149       -7.4146384832       -1.5167709566
 H         5.5080355207       -7.8054034478       -3.2120220813
 H         5.6926787531       -4.0743188044       -3.1173040041
 H         6.5707203943       -5.1189034772       -2.0754186086
 H         6.4373369530       -5.3557539246       -3.8525338334
 H         2.4735890419       -4.9195188307        1.1481997299
 H         1.0580192123       -5.6126759069        0.4863397102
 H         0.0273581315       -1.7299785035        2.5008715698
 H        -0.0554648213        0.0236048755        2.1817665690
 H         1.9494778805       -3.2103870109        2.5056400358
 H         2.4574017514       -1.4967018659        2.4086492644
 H         3.5964736040       -2.9190296966        1.8601868257
 H         2.3878020441       -1.3030988015       -1.3833952205
 H         3.1498193368       -0.5175007687       -0.0011813767
 H         3.8085380957       -1.9942492932       -0.6936226196
 H        -2.2018402651       -0.0716281081        1.6589194122
 H        -2.0508868720       -1.5864244000        0.8462865910
 H        -6.6402123375       -0.9845266351        1.8956683864
 H        -6.6132136288       -1.5379206380        3.5204936826
 H        -4.2160795151       -2.1564733461        0.6749735502
 H        -5.1090608891       -3.2291469166        1.5332130387
 H        -3.4440720474       -3.6497529392        1.2361693837
 H        -4.9327695722       -3.6145922005        4.2490698102
 H        -3.2395658924       -3.5924730900        4.3927283577
 H        -4.1558376964       -2.1761389362        5.0243793352
 H        -6.1315353222        0.6591116815        4.3647143957
 H        -7.6909822803        0.3923819339        3.9716440679
 H        -3.7553171031        2.7140755786        2.1052412451
 H        -3.4904097746        4.1794872263        3.0589657600
 H        -5.2905880284        4.8945644595        1.9519695247
 H        -7.0683530159        4.7039806862        1.6101849693
 H        -5.9551527998        3.4902325306        1.1107901692
 H        -7.5327394112        2.8784859032        4.8327485793
 H        -7.4650318054        4.5464971755        4.4857260033
 H        -8.6162033270        3.4419575708        3.6086245153
 H        -3.0210162716        1.6855546792        4.6779223112
 H        -1.8572936957        1.9992947829        3.2404174858
 H         1.2897905884        4.1994335756        4.6799438664
 H         2.3069317623        3.0588605321        5.5929213569
 H        -0.2304995702        5.0697022451        6.0880943739
 H         0.7647272204        3.8352361941        6.9793922957
 H        -0.7493349254        4.0769806401        7.4828667055
 H        -1.2237301272        0.7666334866        5.8992051478
 H        -0.8108810490        1.3471375646        7.5729982910
 H        -2.1765380710        1.7016409876        6.9518587023
 H         2.6530854500        1.7970507645        3.3801242880
 H         3.5143038589        3.3154913158        3.5915797382
 H         0.8059638297        3.4116479900       -0.3800407115
 H         0.7111661969        4.9124383717       -0.9367132372
 H        -0.2656849897        4.9145968149        1.1303228071
 H         0.6528108585        6.4178890300        0.9977883363
 H         0.3348025322        5.9965946798        2.5881330081
 H         2.6866321019        6.7049031392        2.3232189485
 H         2.5580538560        5.3631390890        3.4950742782
 H         3.8800368169        5.3396249502        2.2733656246
 H         2.7990629904        4.4765625271       -2.4582222243
 H         2.2512903793        2.7007516199       -2.1988444505
 H        -1.7258556050        1.6071143023       -4.9841579958
 H        -1.1739678229        0.4127198900       -3.8818628357
 H        -1.4596017917        2.0676090127       -3.2008759779
 H        -0.6926399859        3.7241982649       -5.6783377243
 H         0.1408367364        2.7731804275       -6.8297198031
 H         0.8852403817        4.3577475815       -6.2682563196
 H         2.7889688933        1.6518908516       -5.3879879163
 H         2.8489755615        3.5059883474       -5.7049333045
 H         3.2146063717        2.8032995563       -4.1166813837
 Na        0.7467781328       -1.4229553220       -2.7934564970
