155

 C        -1.2749118270       -4.7024834050       -4.2760002475
 C        -0.7135736893       -3.3781410702       -4.5263270413
 C         0.3213001870       -3.3116539442       -5.8126818527
 C         1.7923069967       -3.4643776319       -5.1380833428
 C         2.6803074397       -4.4682429924       -5.8221637116
 C        -0.0357113818       -4.2878808206       -7.0215502983
 C         0.1637217651       -1.8537243887       -6.3213983975
 O        -1.0028721830       -2.4169304511       -3.8668635836
 O         2.2397053146       -2.6768045826       -4.3591736647
 C         4.0456666426       -4.6611751604       -5.0108024554
 C         3.7727227333       -5.7216646437       -3.9422141108
 C         4.6617814913       -5.8077180042       -2.6927577240
 C         4.0482851847       -5.0611797790       -1.3824887860
 C         2.8018417700       -5.8044462550       -0.8258790031
 O         2.7432131582       -6.4140951817       -3.9466814414
 O         4.5098950300       -4.1492144898       -0.7316576973
 C         4.9101839996       -7.2522426198       -2.3646747498
 C         6.0827696654       -5.1404675808       -2.8800477564
 C         2.0092933439       -4.8710535543        0.1650062527
 C         1.6524634559       -3.5268163830       -0.4548360081
 C         2.0067538576       -2.1667059501        0.4416256869
 C         0.5953266526       -1.2951833427        0.4289128117
 C         0.0226652533       -1.0942348897        1.7933064556
 C         2.4856650299       -2.4814063652        1.9009423578
 C         3.0323277953       -1.2899120109       -0.3870177675
 O         1.0318921856       -3.4358476840       -1.4915470961
 O        -0.0985720047       -1.0842419942       -0.5757845552
 C        -1.5532152089       -0.9347963056        1.8115443480
 C        -2.4124639370       -1.6149072935        3.0681404713
 C        -3.9139982123       -2.0469551010        2.9081862704
 C        -4.7257164416       -0.7627853296        2.6147934216
 C        -6.2380647292       -0.9106203492        2.8617257870
 O        -1.9467820630       -1.5643369208        4.2257963521
 O        -4.2120277443        0.2613333103        2.2872183612
 C        -3.9012817345       -2.9648277589        1.6163710378
 C        -4.4822463016       -2.8458219035        3.9880850415
 C        -6.8110556867        0.4604979716        3.3951982901
 C        -6.5848151472        1.6185343754        2.4834289137
 C        -6.2179334858        3.0897374182        3.0204162162
 C        -4.9887302927        2.7899357701        3.8782549661
 C        -3.6427538055        2.8144212741        3.2189181679
 C        -6.1663172422        4.0533419123        1.8039494639
 C        -7.3299194869        3.5595574734        3.9238851822
 O        -6.7600348150        1.4862493530        1.2822883516
 O        -5.1491269720        2.6069837318        5.0668091747
 C        -2.5783708974        2.1483513354        4.1098934023
 C        -1.9847060931        3.3359265261        4.9200506803
 C        -0.8297841553        2.8704717855        5.8608367050
 C         0.3709785259        2.3958457487        4.9443342306
 C         1.7955414389        3.1196009101        4.7580479575
 O        -2.3885462733        4.4858041632        4.9231291843
 O         0.2600624257        1.3595068883        4.3513355674
 C        -0.3993422014        3.9347355929        6.9158594081
 C        -1.2330021390        1.7492821505        6.7888813318
 C         2.4610769836        2.7148544631        3.3986397039
 C         1.7011684007        3.2886812194        2.1508994067
 C         1.8803337322        4.7106961090        1.5584757390
 C         2.3427297633        4.4786231835        0.1177273754
 C         1.3143466439        4.1828370026       -1.0013958070
 C         0.3605040181        5.3622586431        1.6130299946
 C         2.9125254274        5.6038788531        2.2437245761
 O         0.9327921838        2.6131898592        1.5143232162
 O         3.4981317440        4.6606403817       -0.1555801979
 C         1.9968583837        3.8163588997       -2.3116813844
 C         1.0602838559        4.0375755599       -3.4688772135
 C         1.1333778856        3.1620356211       -4.7399977696
 C         0.4804403132        1.7900370964       -4.1930838827
 C        -0.9834465861        1.7554836548       -4.0031028462
 O         0.1916682305        4.8606358682       -3.4159937416
 O         1.1533357581        0.8003247709       -3.9663751412
 C         0.4219010665        3.8118310286       -5.9029478101
 C         2.6470863169        2.7408493596       -5.2196604271
 H        -0.9320997704       -5.4394453885       -4.9475342230
 H        -1.0414623578       -5.0880888892       -3.2841998812
 H        -2.3272770369       -4.6330290531       -4.2672140580
 H         2.1246353549       -5.3595352114       -5.7465066448
 H         2.7868263366       -4.1202715205       -6.7880729180
 H         0.0798670268       -5.3254612901       -6.6879758480
 H         0.6209336179       -4.1665542716       -7.8232529175
 H        -0.9724249856       -4.0936684655       -7.4115149182
 H         0.8885524342       -1.7151756127       -7.1388817034
 H        -0.8738308430       -1.7760530490       -6.5657668961
 H         0.3239178539       -1.1677595937       -5.5762295573
 H         4.7955979843       -5.1144929252       -5.6614498770
 H         4.4108854414       -3.7590661567       -4.5978930551
 H         2.2321228361       -6.1700814263       -1.7001269131
 H         3.3288840990       -6.6872378672       -0.3138843981
 H         4.0008109515       -7.8677183637       -2.3635121628
 H         5.3284846682       -7.2374590474       -1.2842831312
 H         5.5807019246       -7.7967719432       -3.0200219737
 H         6.1681815716       -4.0168931974       -3.1256873318
 H         6.5541839193       -5.4638055426       -1.9774730791
 H         6.6566326829       -5.5791302422       -3.7517769020
 H         2.5692917072       -5.0055208358        1.0572412003
 H         1.0874626540       -5.4438244467        0.4213816283
 H         0.2394632789       -2.0047978169        2.4224628765
 H         0.2910444286       -0.0757715414        2.2142156113
 H         1.6895995908       -2.9866828971        2.3807116513
 H         2.6460550509       -1.5913585695        2.4522177845
 H         3.3464081258       -3.1615374426        1.9048468695
 H         2.7581064020       -1.1636204049       -1.4040756862
 H         3.1298568020       -0.2985096296        0.0587346426
 H         4.0483143975       -1.7379535947       -0.5170790975
 H        -1.9131759613        0.1813661984        1.8063211674
 H        -1.8532695429       -1.3214315758        0.8875350255
 H        -6.7650069561       -1.0119891643        1.8886879107
 H        -6.6752366218       -1.7479631993        3.4013144549
 H        -3.8215233350       -2.4399192830        0.7041246643
 H        -4.7028054748       -3.5818451024        1.4507544115
 H        -3.0720287989       -3.6298621055        1.6730791418
 H        -4.8799528716       -3.7999138872        3.6655211867
 H        -3.7050374307       -3.2184481344        4.7497002460
 H        -5.2133781181       -2.2586445551        4.6238124158
 H        -6.4819318591        0.6820571890        4.4519823165
 H        -7.8882696577        0.3900052966        3.4969774488
 H        -3.6480804892        2.2628133891        2.3051776876
 H        -3.4926205597        3.8802042818        2.9517558233
 H        -5.4512798212        3.6949897782        1.1394017443
 H        -5.9729468790        5.0343629732        2.1555780800
 H        -7.1992152172        4.0136472997        1.2548236836
 H        -7.5498878920        2.9241634387        4.8302888334
 H        -7.2438728993        4.5664123144        4.2323526070
 H        -8.2068678024        3.4230017542        3.2538038683
 H        -2.9975594805        1.4959723365        4.8403253180
 H        -1.7745671338        1.7549412889        3.4845568215
 H         1.8355037576        4.1787856055        4.8417971439
 H         2.4153596926        2.7344906464        5.5473917296
 H        -0.8289744831        4.8228778314        6.6065664654
 H         0.6897436184        4.1061808517        7.0122157847
 H        -0.8002430711        3.8900824141        7.9196311347
 H        -1.5918070916        0.7959096683        6.3944961788
 H        -0.3852747694        1.4880184023        7.3906849622
 H        -1.8454902341        2.0040844631        7.6688609231
 H         2.5450803367        1.6007892858        3.3780929941
 H         3.4610242009        3.2059594238        3.4256767674
 H         0.5085636009        3.4532427275       -0.6179100532
 H         0.7959485648        5.1443747657       -1.1105221933
 H        -0.3207751685        4.5876605676        1.2164853643
 H         0.2040619476        6.3012172814        1.0320745045
 H         0.1549128157        5.6541334468        2.5814713206
 H         2.9669321357        6.4654287208        1.6412883888
 H         2.6220352761        5.9951003539        3.1688598776
 H         3.8713443957        5.0644207640        2.2361863065
 H         2.8175749573        4.4784642224       -2.4390450106
 H         2.2766143896        2.7338193043       -2.2195507538
 H        -1.3866400014        2.1462474992       -4.9726050910
 H        -1.4699116314        0.8259272916       -3.8615597873
 H        -1.2231650537        2.4796723341       -3.2347742840
 H        -0.6077057997        3.9247142518       -5.5552801141
 H         0.3265153742        3.2501768903       -6.7731608323
 H         0.9832484479        4.7281274615       -6.0389680062
 H         2.5992389189        2.1137244057       -6.0920400972
 H         3.1551912199        3.6713964356       -5.3774480856
 H         3.1229519906        2.2060186350       -4.3669308502
 Na        0.7066994543       -1.2889674888       -2.9676752173
