155

 C        -1.3557578980       -3.7352272566       -5.8142593146
 C        -0.1781922369       -3.2927982046       -5.0314679207
 C         1.1500761404       -3.5645704007       -5.7948558182
 C         2.3434194578       -3.5121287283       -4.6657243104
 C         2.6088010266       -4.8782458410       -3.9687479093
 C         1.1369358755       -4.7640416829       -6.7382059435
 C         1.2366737958       -2.2461957177       -6.7327448502
 O        -0.2168736306       -2.6231615511       -3.9769866619
 O         2.8204147084       -2.4528261160       -4.3478984269
 C         4.0868855581       -5.0636683337       -3.8131414233
 C         4.3871415685       -5.5538381339       -2.3950062839
 C         5.7802120794       -5.2746663668       -1.7007034817
 C         5.4747074211       -3.8559652566       -0.8856912503
 C         4.4407952827       -3.9826369568        0.1709194371
 O         3.5098343943       -5.9878538477       -1.7205154396
 O         6.1754582189       -2.9157878869       -1.0857030721
 C         5.9268252775       -6.3405941040       -0.5793883243
 C         7.0296968624       -5.1117291879       -2.5515870814
 C         3.8855691998       -2.6505597799        0.7927080337
 C         2.8971028104       -1.8405433902       -0.1283257017
 C         1.9911039225       -0.5961923687        0.2692950214
 C         0.5370607176       -0.8498749187       -0.1712375364
 C        -0.2778804098       -1.6560377878        0.7712954206
 C         2.1680871969       -0.3622914719        1.7425625122
 C         2.6436517106        0.6475697389       -0.5375894226
 O         3.0037381328       -2.0474286002       -1.3678079465
 O         0.1416243652       -0.4964083210       -1.3098755080
 C        -1.7760526193       -1.5317112643        0.4801413873
 C        -2.5541578863       -2.3101343810        1.5786116074
 C        -4.2135704499       -2.3649089846        1.4437473427
 C        -4.8379106980       -0.8602215925        1.3476673549
 C        -6.4009037044       -0.7980642842        0.9255619547
 O        -2.0986835331       -2.5703631837        2.6556782333
 O        -4.2420961560        0.1079681527        1.7218841974
 C        -4.6296954798       -3.2912011114        0.2466258819
 C        -4.7671768744       -3.1025898644        2.7433180463
 C        -7.1578702623        0.1644508133        1.8712820261
 C        -6.6929636381        1.5812965455        1.5634891801
 C        -6.7351377911        2.6605186027        2.7706032532
 C        -5.7973838630        2.0498457653        3.8159166751
 C        -4.2871683590        2.4423101019        3.6997247271
 C        -6.3645470888        4.0807073820        2.2466289595
 C        -8.1997315757        2.6317892663        3.2415561031
 O        -6.2900787654        1.8862308401        0.4434558617
 O        -6.2724931710        1.1961973950        4.5044445315
 C        -3.2950508472        1.4430086540        4.3666159998
 C        -2.3330878073        2.0497223827        5.3055804447
 C        -1.1250690278        1.0313738113        5.7819424102
 C         0.0628833564        1.4777304485        4.8366411332
 C         0.5995887785        2.8890863012        5.0706321050
 O        -2.2951422648        3.2255894181        5.5975442127
 O         0.4831352131        0.8048147039        3.9180378635
 C        -0.8044548953        1.2953721697        7.2596772173
 C        -1.2898602494       -0.4911539360        5.6364134747
 C         1.5759682959        3.3604258677        3.9357879391
 C         0.9315327257        3.7413276179        2.6490336938
 C         1.1885177204        5.2085853652        1.9560721976
 C         1.5791768449        5.0106896782        0.4855955633
 C         0.5292388300        4.4120311272       -0.3991167344
 C        -0.1560869193        5.8540871248        2.1337932815
 C         2.3077208713        5.9026310537        2.7135779072
 O         0.2650221713        3.0044565347        1.9622634281
 O         2.7090336425        5.3350155420        0.1098421626
 C         1.0618621664        4.2635789636       -1.8424579180
 C         0.0964336966        3.5309399816       -2.6806970427
 C         0.5117511439        3.0493203810       -4.1699111467
 C         0.5005236401        1.5402300376       -3.9822645230
 C        -0.8112475555        0.6976381644       -4.0306192543
 O        -1.0381644558        3.3214165370       -2.3066941714
 O         1.5246627476        0.9169449182       -3.8443047729
 C        -0.5407024636        3.5169588886       -5.1977451029
 C         1.9192427712        3.5594098613       -4.6093645545
 H        -1.3924777474       -4.7844214512       -5.8463313681
 H        -2.2727984478       -3.1778098092       -5.6666676912
 H        -1.1787093400       -3.5279570039       -6.8392810892
 H         2.1872453638       -4.9130600741       -2.8782154835
 H         2.0933955428       -5.6561464195       -4.6360853216
 H         2.0031013097       -4.7857149554       -7.4603593187
 H         0.3042979215       -4.8739893287       -7.4193885503
 H         1.3633999254       -5.7180296762       -6.2326771466
 H         2.0946879643       -2.1700962992       -7.3840428162
 H         0.3756556366       -2.0517933063       -7.3389209177
 H         1.2572443250       -1.4379477188       -6.0934773023
 H         4.5487539330       -5.6891437601       -4.5614859946
 H         4.6141278156       -4.0796193888       -3.9154565259
 H         3.5813707951       -4.5795000818        0.0393998821
 H         5.0425983551       -4.5111189927        0.9876431758
 H         5.2087801648       -6.4586826224        0.2968303518
 H         6.7957299890       -6.2987913554        0.1378774322
 H         6.2072541084       -7.3121344709       -0.9616461112
 H         6.8543515961       -4.1169302951       -3.0894913105
 H         7.8877272722       -4.9772486404       -1.9087617047
 H         7.1735166557       -5.9316740747       -3.2624540590
 H         4.7105023873       -1.9932816272        1.1138689678
 H         3.3099984312       -2.9205625811        1.7378380235
 H         0.1158650712       -2.7323150171        0.8165605584
 H         0.0738988560       -1.3797662244        1.7798871464
 H         2.4455991422       -1.2776231778        2.2831400507
 H         1.2875677591        0.0989555961        2.2185325736
 H         2.9539303758        0.3547583166        1.8337190310
 H         3.5009941664        0.3461970483       -1.1606302279
 H         1.8346859155        1.1369200044       -1.1687236212
 H         2.9718558400        1.3006889128        0.2871206977
 H        -2.0844489917       -0.4626114740        0.4171576443
 H        -1.9381674261       -1.9127521542       -0.5798900663
 H        -6.5611505956       -0.4101157359       -0.0824781259
 H        -6.8989871567       -1.7381966884        0.9398420053
 H        -3.9996136394       -2.9414757776       -0.5113784098
 H        -5.6964154551       -3.2566703225        0.1433521556
 H        -4.2646397756       -4.2970308167        0.3632187209
 H        -4.3123868467       -2.5791329457        3.6289315390
 H        -5.7925103540       -2.9689215291        2.9765308368
 H        -4.5376758673       -4.1884752653        2.6196896162
 H        -6.8236988424       -0.0457322453        2.9389871314
 H        -8.2300652478        0.0088907650        1.7872116175
 H        -3.9784253095        2.6833700100        2.6782546201
 H        -4.1718040886        3.3676259960        4.3029144530
 H        -5.6448918968        4.0409185517        1.4863948844
 H        -5.9738168666        4.7549298615        3.0919389583
 H        -7.1858947185        4.5711122429        1.8267176523
 H        -8.3761916265        1.6599277462        3.6099411829
 H        -8.3442696359        3.3603819367        4.1013873619
 H        -8.8528696854        2.8648876748        2.3948199874
 H        -3.8688367175        0.6329805934        4.8095572211
 H        -2.7062262866        0.8856003001        3.5990499891
 H        -0.2637433022        3.4772662529        5.0641145295
 H         1.1519015106        2.8691915217        6.0091873949
 H        -0.8104435955        2.3311094992        7.5655350524
 H         0.2500163929        0.8911331634        7.4413986733
 H        -1.5211225082        0.6617464524        7.9016892052
 H        -1.3012701287       -0.7551582500        4.6100023964
 H        -0.3086137014       -0.8460399731        5.8547439589
 H        -2.1381025577       -0.9889570325        6.1200688105
 H         2.3154957069        2.6080643286        3.6327358635
 H         2.0829652401        4.2340031118        4.3538406587
 H         0.3176791159        3.3407985605       -0.1150479095
 H        -0.3911933791        5.0998780622       -0.3748850845
 H        -1.1623182640        5.3182852772        1.9837629319
 H        -0.2241273255        6.7744339359        1.5521403951
 H        -0.3385540287        6.0221071359        3.1698330578
 H         2.5615375752        6.8007434248        2.2060459125
 H         2.0330798017        6.0639430781        3.7173399090
 H         3.2167054790        5.3556615501        2.6077151969
 H         1.0050180243        5.2343637752       -2.2083640859
 H         2.0835040055        3.8962882792       -1.7985211082
 H        -1.0982774001        0.7659501599       -5.0727284394
 H        -0.6187148844       -0.3254053044       -3.8284565813
 H        -1.6460499062        1.0107757293       -3.3837676283
 H        -1.5546904479        3.3302034155       -4.7775597853
 H        -0.4432835108        3.0389602991       -6.1097548570
 H        -0.4794804171        4.6549219427       -5.3364949528
 H         2.1216816227        2.9975926362       -5.5215482900
 H         2.0160296301        4.5814423220       -4.9580392365
 H         2.6175963554        3.4147753879       -3.8638500237
 Na        1.5541830524       -1.1979878456       -3.0206680719
