155

 C        -1.4015806923       -3.9094933249       -5.2791614077
 C         0.0712421071       -3.4184558562       -5.1084318623
 C         1.3103543353       -3.8369461196       -6.0212223818
 C         2.5596255756       -3.7861778219       -5.0950580336
 C         3.2700010722       -5.0166548232       -4.4658175090
 C         1.1390817084       -5.1799773139       -6.7590115657
 C         1.3326204551       -2.5802921982       -6.9727376950
 O         0.3578556661       -2.4265546523       -4.4169636742
 O         3.0013500399       -2.6870278412       -4.6779367282
 C         4.3878415829       -4.5653949716       -3.4976217281
 C         4.6788565036       -5.5636765637       -2.2880504758
 C         5.8944972511       -5.0926793847       -1.3511882046
 C         5.2878859218       -3.7916389102       -0.4627430045
 C         4.0167601182       -4.0202549427        0.3934961303
 O         3.9399633954       -6.5108379272       -2.1592011202
 O         5.5846146699       -2.7004001480       -0.8194333536
 C         6.2312656188       -6.2343373911       -0.3573233838
 C         7.1627450773       -4.7821014979       -2.1970470046
 C         3.4722649804       -2.7280649357        0.9803265994
 C         2.8749681106       -1.8519380666       -0.0395017134
 C         2.0988364070       -0.3459875682        0.3034703072
 C         0.6339133690       -0.5751984564       -0.0420680322
 C        -0.3766404119       -0.6583190501        0.9974934008
 C         2.3239957175        0.0723205921        1.7865861547
 C         2.7803575774        0.6099068551       -0.5854648281
 O         2.7272756542       -2.2183367547       -1.1823104188
 O         0.3015946148       -0.6919466201       -1.2417212423
 C        -1.7118506681       -1.2188475354        0.4746623201
 C        -2.6479653674       -1.9871713339        1.5421879212
 C        -4.0129382443       -2.3787437517        1.0137671494
 C        -4.9454598447       -1.1463460165        1.5461034150
 C        -6.3503911104       -1.0077955950        0.8392334062
 O        -2.1487907407       -2.2887859456        2.5879160815
 O        -4.6078643571       -0.2394836525        2.2282532512
 C        -4.0884624438       -2.5202005256       -0.4961170084
 C        -4.5483516830       -3.5652083300        1.8906670189
 C        -7.2372240238        0.0617697740        1.5069058845
 C        -6.5557093437        1.4325645382        1.3953163985
 C        -6.6586199678        2.4583457838        2.6406400169
 C        -5.8445876173        1.8093533275        3.7245321159
 C        -4.2940895824        2.2929297495        3.8823064657
 C        -6.1585548660        3.8931470759        2.1902860863
 C        -8.2252411143        2.5769488829        2.8523164196
 O        -5.9213186056        1.8260593682        0.4109912835
 O        -6.2982483681        1.0327643167        4.5543260636
 C        -3.4636333107        1.1945815701        4.6102177637
 C        -2.4706613440        1.7793471568        5.6286274691
 C        -1.1852018709        0.9317603718        6.0543156858
 C         0.0279538803        1.3792614523        5.0251905923
 C         0.6308536954        2.8623324932        5.1392169823
 O        -2.5522284975        2.8846291938        6.0944593078
 O         0.4775358344        0.7055767008        4.1741267521
 C        -0.8425290654        1.2702763283        7.5373282509
 C        -1.4436404648       -0.6245660020        5.7577997507
 C         1.4744228272        3.1161908904        3.9054738958
 C         0.6567556350        3.7525244154        2.7203970525
 C         0.9731780988        5.2452135415        2.0446878616
 C         1.4547277158        4.9788650606        0.5327417056
 C         0.4000944652        4.5871250615       -0.4973731787
 C        -0.2903436469        6.1352552216        2.1583696171
 C         2.1743058278        5.9392799030        2.7115828344
 O        -0.1816677187        3.1369961955        2.1802841154
 O         2.6680808706        4.9759248147        0.2755094388
 C         1.0667871788        4.2574620715       -1.8575467302
 C        -0.1012297921        3.7133574088       -2.7025172750
 C         0.2857991369        3.2609344116       -4.2568517985
 C         0.3877233844        1.6529289803       -4.2237708836
 C        -0.8689423147        0.7973783807       -4.1788538458
 O        -1.2234951888        3.4865632358       -2.2931683089
 O         1.5277321856        1.1816311928       -4.0754387146
 C        -0.9219736194        3.5985439635       -5.0899309505
 C         1.5844024200        3.8391510735       -4.7795286845
 H        -1.4894627655       -4.9317246618       -4.8530716264
 H        -2.0836365880       -3.2284933636       -4.7415326680
 H        -1.7264579303       -4.0268624616       -6.2794138536
 H         2.6298173805       -5.6972782497       -4.0161854608
 H         3.7114455230       -5.5773578559       -5.3020229286
 H         1.7687161592       -5.2555859395       -7.6349094131
 H         0.1119819082       -5.2815217787       -7.0285328810
 H         1.5024311064       -5.9910514856       -6.0562042557
 H         1.8847734061       -2.8432669995       -7.8286147406
 H         0.3654260656       -2.2916223016       -7.2867674656
 H         1.8478627052       -1.7162905359       -6.4988483723
 H         5.3001302451       -4.3298296461       -4.0403101732
 H         4.0551247543       -3.6680967362       -3.0364372475
 H         3.2013895924       -4.4581579361       -0.2516524858
 H         3.9943837324       -4.7379668820        1.1636996178
 H         5.5058935253       -6.5256767738        0.3525839242
 H         7.0759095871       -6.1194158648        0.2033582587
 H         6.3502103963       -7.2446615544       -0.7404954435
 H         7.1238284700       -4.0032015037       -2.9188965727
 H         8.0249711216       -4.6080675545       -1.4807025959
 H         7.3993776590       -5.7384603531       -2.6647718324
 H         4.3300969464       -2.2802278154        1.5458216380
 H         2.6844699547       -2.9379183904        1.6899560380
 H        -0.0278487791       -1.1529938020        1.8549939675
 H        -0.4418060022        0.3061399062        1.4538522860
 H         1.9935372434       -0.6152179887        2.5298953686
 H         1.8486555242        1.0475967576        1.8785868366
 H         3.3745578403        0.2395380668        1.9934721194
 H         3.4273896724        1.1241149748        0.0967202575
 H         3.3171670938        0.0540542175       -1.3883181014
 H         2.0892701838        1.2210340626       -1.1889408158
 H        -2.3497911515       -0.4452373541        0.0192803776
 H        -1.4447125263       -1.9120242290       -0.2921268394
 H        -6.0784570241       -0.5657101508       -0.1026571640
 H        -6.9138964972       -1.9112344936        0.6025830068
 H        -3.7762788881       -1.5375373474       -0.9845379792
 H        -5.2171321006       -2.6164215617       -0.7461994804
 H        -3.6247573984       -3.4653861171       -0.7825748625
 H        -4.4362966160       -3.2126877273        2.9369545255
 H        -5.6356561017       -3.7316994147        1.5485424788
 H        -4.0058728197       -4.5649983553        1.7727763568
 H        -7.5134111031       -0.0912509698        2.5267244644
 H        -8.2544785561        0.1783186874        1.1059036787
 H        -3.8855838047        2.4903621586        2.9014359235
 H        -4.2900047440        3.1965169857        4.4550869709
 H        -5.3556608880        3.8552881967        1.4407132101
 H        -5.7927318405        4.4701981043        3.0162535723
 H        -6.9967194719        4.3789114398        1.6122470525
 H        -8.6712533835        1.6649965227        3.3173555454
 H        -8.3613863178        3.3798752519        3.5095106267
 H        -8.6215238546        2.9237469165        1.8973386850
 H        -4.2033907046        0.4631629548        5.0330111764
 H        -3.0590887004        0.5099630459        3.8730300111
 H        -0.1229768644        3.6333581621        5.2242098660
 H         1.1091608099        2.9316563893        6.0903464757
 H        -0.6324457669        2.3408558733        7.6564017104
 H         0.0073353466        0.6637904354        7.8168493768
 H        -1.6617234365        0.9882571284        8.3199279059
 H        -1.5406421640       -0.7192985081        4.7394931024
 H        -0.6234655519       -1.2041994146        6.2124976799
 H        -2.2936226668       -1.0472816436        6.2307011161
 H         1.9867726422        2.2496147878        3.5357682680
 H         2.3053997149        3.7644568939        4.2048666233
 H        -0.1621978469        3.7681713801       -0.1079381579
 H        -0.3782160363        5.2372557426       -0.6596807312
 H        -1.2355617360        5.6327002673        1.8723801952
 H        -0.3037151630        6.8713401030        1.3863648355
 H        -0.4014956651        6.7702705413        3.0861848058
 H         2.0827432311        6.9027108599        2.2683473379
 H         2.0614312763        6.1203833892        3.7689284107
 H         3.0516411066        5.4651370261        2.4972982230
 H         1.5761015535        5.1440838733       -2.3930399205
 H         1.7698647104        3.3903001639       -1.7205571665
 H        -1.2961675288        0.7412852978       -5.1431306569
 H        -0.6805574069       -0.2373047782       -3.8229426032
 H        -1.5287601327        1.2190167687       -3.4769731468
 H        -1.7836269470        3.3862865705       -4.4954654177
 H        -0.9378280831        2.9621897042       -6.0202564118
 H        -0.8449369767        4.6236236003       -5.4009200635
 H         1.9323343130        3.4092762879       -5.6565667809
 H         1.4009493754        4.9044532309       -4.8338245350
 H         2.3874140804        3.6196343682       -4.0843643888
 Na        1.9821110012       -0.9801361939       -3.2180710111
