155

 C        -0.7283765640       -4.6048758814       -5.6130934758
 C         0.4628503816       -3.9903597007       -4.8525548745
 C         1.8260532981       -4.1042206555       -5.6469895586
 C         2.9541734682       -3.1904679459       -4.8587800596
 C         4.3184040064       -3.7958938002       -4.5660874916
 C         2.2525871844       -5.5859191478       -5.9088869943
 C         1.6357736222       -3.3817874467       -7.0092432195
 O         0.2651845714       -3.2227380564       -3.9123567499
 O         2.6115908709       -2.1088929424       -4.5367472679
 C         4.6808451045       -3.6190823858       -3.0515092106
 C         5.3120503296       -4.9435797798       -2.4463548972
 C         5.7888785849       -4.9557117938       -1.0026175248
 C         4.8948643973       -3.9281054345       -0.1175722311
 C         3.3768312051       -4.1454109859        0.3049757561
 O         5.2184854389       -5.9495595486       -3.1293918260
 O         5.4019758769       -2.8959735788        0.3093802634
 C         5.8835609511       -6.2845232928       -0.3820648937
 C         7.3031504250       -4.3510452399       -1.0423126628
 C         2.7800678281       -2.8158060205        0.9219806265
 C         2.3339778688       -1.8351361465       -0.1433185563
 C         2.0074224469       -0.3392785706        0.2713549730
 C         0.4161799591       -0.0569866521        0.0849061790
 C        -0.3185897637        0.2409157707        1.4111245729
 C         2.5261119331       -0.0509713541        1.7191213846
 C         2.9041754341        0.5842213654       -0.6329993303
 O         2.1968121346       -2.1167103084       -1.3275410937
 O         0.0124066732       -0.0314082609       -1.0798434579
 C        -1.8285562126        0.0663574728        1.0677429720
 C        -1.9606889925       -1.3947002974        0.6025552423
 C        -3.3658031146       -1.9013739306        0.2648713282
 C        -4.5476977780       -1.2519524054        1.0319551475
 C        -6.0073304326       -1.2996167994        0.5422999515
 O        -0.9876812053       -2.1399693367        0.5235585365
 O        -4.3117371900       -0.5694895357        2.0422010042
 C        -3.5535988765       -1.8299099663       -1.3263666625
 C        -3.3099411163       -3.4638549347        0.7235449363
 C        -6.7927679335       -0.2624874340        1.3833126542
 C        -6.3090807281        1.2558064543        1.3362623199
 C        -6.7173972898        2.2256900503        2.5116770058
 C        -5.9756191035        1.7104540684        3.8152570545
 C        -4.5666897869        2.0446823080        4.0600539976
 C        -6.2295549782        3.6707495367        2.1736359940
 C        -8.3144641066        2.1623063220        2.7191827221
 O        -5.5086522490        1.5899281773        0.4778400792
 O        -6.5172206146        0.8456727963        4.5027157094
 C        -3.8088149379        1.0296346074        4.9729362558
 C        -2.5576506799        1.6544371469        5.6188259881
 C        -1.2309332750        0.7508269001        6.0158885227
 C         0.0638597556        1.2780019010        5.1918031618
 C         0.4980904996        2.6793249780        5.5163971477
 O        -2.5193769015        2.8309454668        5.8961642292
 O         0.4181650011        0.6694128247        4.1483778052
 C        -1.0724458992        0.7372805305        7.5397793398
 C        -1.5516677731       -0.6736323735        5.5905064294
 C         1.2527988542        3.3887719228        4.3057339791
 C         0.2416786482        3.8566250254        3.2208081774
 C         0.6951337998        4.9947166843        2.1014816111
 C         0.9552094389        4.2690775499        0.7721283596
 C        -0.0268216437        4.3571059017       -0.4260263414
 C        -0.5676002429        5.9266990104        2.0140092736
 C         1.9371677940        5.7125634558        2.5655565621
 O        -0.8919381953        3.4002377766        3.0902726044
 O         1.8970833948        3.5152420799        0.6439555549
 C         0.6677824291        3.8891268615       -1.7553628143
 C        -0.2787603331        3.7945123535       -2.9126473717
 C         0.1330281413        3.3463418603       -4.3628367363
 C         0.0581575392        1.7714570586       -4.1448878540
 C        -1.2864104695        1.0898866818       -4.0491652453
 O        -1.4531714363        3.9403783061       -2.6886146411
 O         1.1011283507        1.1420350842       -4.0968174415
 C        -0.8229981163        3.8778123367       -5.3844539337
 C         1.5523156660        3.6990461017       -4.8090524218
 H        -1.1809772424       -3.8364101544       -6.2419445016
 H        -0.2795365328       -5.4673344971       -6.1173826937
 H        -1.4460506522       -5.0649177938       -4.8807464384
 H         4.3347753019       -4.8736045318       -4.9349967963
 H         4.8956606727       -3.1987188641       -5.3157644614
 H         3.1724508394       -5.6181541605       -6.5225702988
 H         1.3988063772       -6.0052738572       -6.4359521831
 H         2.6066309389       -5.9812371405       -4.9833038838
 H         2.6937780875       -3.3069599088       -7.3642468417
 H         1.0866069251       -3.9769001350       -7.7792111628
 H         1.2629476254       -2.4069064338       -6.8791185946
 H         5.3021068388       -2.7240935300       -2.9180123809
 H         3.7790716152       -3.4034185380       -2.4876732061
 H         2.8423865658       -4.4316947458       -0.6076522394
 H         3.2537298457       -4.9194017393        1.0642268366
 H         4.9351267196       -6.9081831747       -0.4382220357
 H         6.0254023122       -6.4339408025        0.6909161997
 H         6.8204073712       -6.9237825256       -0.6400686229
 H         7.2445809760       -3.2947740521       -1.4111313975
 H         7.6783325501       -4.2915797041       -0.0757224307
 H         7.9492966250       -4.9268283206       -1.6396484340
 H         3.6027241359       -2.4509856621        1.6025961295
 H         1.9741211704       -2.9702822499        1.6193633778
 H        -0.1759813403       -0.6030942107        2.1798819479
 H        -0.0394068671        1.2476013237        1.7503432417
 H         1.8997136096       -0.3672423607        2.5413439730
 H         2.5567807747        1.0312489100        1.8203664949
 H         3.5076149204       -0.3624042661        1.8623422427
 H         3.9286654953        0.2166003523       -0.5332348181
 H         2.7024020191        0.5079014128       -1.6563261096
 H         2.8916380151        1.5511680130       -0.1574698592
 H        -2.4613677842        0.4906120254        1.9115214624
 H        -2.0818539822        0.6553277543        0.1781516723
 H        -5.9419565232       -1.1380779378       -0.5523225718
 H        -6.4473744738       -2.2933876572        0.8198859880
 H        -3.1364880546       -0.9261484603       -1.7668591015
 H        -4.5315251922       -2.0191983897       -1.6997862742
 H        -2.8086576326       -2.4841487294       -1.8753836825
 H        -3.2268329782       -3.5927806147        1.8242546868
 H        -4.2711665734       -3.8415185329        0.4912775491
 H        -2.6458302838       -3.9029949639       -0.0027863980
 H        -6.6761151227       -0.6966659272        2.4026949499
 H        -7.8160864757       -0.2299974258        0.9986428191
 H        -4.0177666335        2.1621642810        3.1024223874
 H        -4.4684959950        3.0492797654        4.4822829450
 H        -6.4852439366        4.5021229497        2.8688355974
 H        -6.7761925167        3.9427772271        1.2797789671
 H        -5.1633523915        3.7623164459        1.9812534235
 H        -8.5295098786        1.1916771982        3.0775766921
 H        -8.7013009656        2.9214330750        3.4603090421
 H        -8.8088493157        2.3932126778        1.7746055438
 H        -4.5191188041        0.7959187156        5.7568937111
 H        -3.5533786272        0.2068917005        4.3593233836
 H        -0.3839584450        3.2594306611        5.8194723871
 H         1.2214183530        2.5593321428        6.3799827877
 H        -1.5489554644        1.5128963766        8.1005449348
 H        -0.0296720379        0.7923151651        7.9082333319
 H        -1.3727327874       -0.1336647009        7.9443298165
 H        -1.4917196195       -0.7240508040        4.4856735310
 H        -0.9428763183       -1.4142950109        6.0840790213
 H        -2.5963743493       -0.8661909994        5.8553500636
 H         1.9756704613        2.7207260878        3.8122614063
 H         1.7644738454        4.2726495499        4.7654677408
 H        -0.8224050697        3.5249790985       -0.3271582154
 H        -0.4924120350        5.3936731582       -0.5119874286
 H        -1.5382603631        5.4876429413        2.0782810367
 H        -0.5166384832        6.6397318860        1.1667805069
 H        -0.5757812047        6.4862408464        2.9112009784
 H         2.2358456992        6.4432414837        1.7868058017
 H         1.8397826107        6.2595793650        3.4712845417
 H         2.7037653235        4.8722931553        2.5617985398
 H         1.5129314573        4.5622519505       -1.9879333431
 H         1.1641167896        2.9715219185       -1.6187509550
 H        -1.5978995669        1.1146495264       -5.1070686230
 H        -1.0932536038        0.0938224719       -3.7719726662
 H        -2.1012605172        1.6544953569       -3.5570775933
 H        -1.8078846374        3.8726740705       -4.8997519243
 H        -0.7696115605        3.3274811271       -6.2606700348
 H        -0.3884916233        4.9039831904       -5.5504311992
 H         1.6473652460        3.1077057887       -5.7647783291
 H         1.6115763706        4.7875931170       -5.0729311206
 H         2.3544001407        3.3933242202       -4.1473518145
 Na        1.0862317112       -1.0485300435       -3.1216203904
