155

 C        -0.4169721808       -4.9608738659       -5.5919957621
 C         0.5760237060       -4.0474341590       -4.9228529624
 C         2.0067349476       -3.9998222282       -5.5734407428
 C         2.9190268289       -2.9516676144       -4.6778134778
 C         4.3169291700       -3.4797740413       -4.3364893225
 C         2.5391749811       -5.5047232209       -5.7670011449
 C         2.0446227486       -3.3543157168       -7.0069647625
 O         0.2519323208       -3.2592349213       -3.9674531057
 O         2.4557577003       -1.8487231019       -4.4567553126
 C         4.8948735993       -3.1564737121       -2.9366302105
 C         5.1235107640       -4.5557176428       -2.2740293181
 C         5.6789210177       -4.5817056863       -0.8323988341
 C         4.8185402374       -3.6530668512        0.0945375749
 C         3.3274665369       -4.1500004251        0.3768297312
 O         5.0943430941       -5.5593933933       -2.9655301181
 O         5.2435592153       -2.5787914842        0.4548692590
 C         5.6189664018       -5.9883300306       -0.1761515948
 C         7.1725102061       -4.3357345119       -1.0357333750
 C         2.5274548244       -3.0124949051        0.8828984667
 C         2.3590275030       -1.9083433833       -0.1365111466
 C         2.2953595549       -0.4205650302        0.2908296798
 C         0.7995841299        0.1108378993       -0.0803494882
 C        -0.1564458998        0.3997297790        1.0867449901
 C         2.6228759485       -0.1075171845        1.7822286801
 C         3.3105832492        0.3456010131       -0.6391031149
 O         2.1490326093       -2.2301742273       -1.3131168499
 O         0.3851936349        0.2489551537       -1.2190088856
 C        -1.7495748392        0.1060699874        0.8515209406
 C        -1.8528072808       -1.4111329208        0.3299563442
 C        -3.2031752313       -1.9614261741        0.1275074692
 C        -4.3881141444       -1.4273712764        1.0447028732
 C        -5.7505874094       -1.0667448487        0.4255066861
 O        -0.8572052290       -2.0750824336       -0.0121342866
 O        -4.2297691878       -1.4530040944        2.2670700453
 C        -3.5090052547       -1.4818285735       -1.3565349938
 C        -3.1083073318       -3.5239699600        0.2666708389
 C        -6.5440517516       -0.2561210570        1.4133508343
 C        -6.2362714436        1.2425069434        1.3796821159
 C        -6.8144391118        2.1330220003        2.5433513429
 C        -5.9622725845        1.6808601466        3.7218117041
 C        -4.5402917545        2.2113033884        3.9933189664
 C        -6.6066245304        3.5600866144        2.1255447763
 C        -8.3323508660        1.9252489762        2.6981897156
 O        -5.4645676236        1.6940816764        0.6133768976
 O        -6.4719726114        0.9735678360        4.6033290329
 C        -3.5593707895        1.1179489084        4.4023146045
 C        -2.6027267033        1.6081319853        5.4795319951
 C        -1.3058972032        0.6449179268        5.8674833793
 C        -0.0185996663        1.1905696750        5.1947801149
 C         0.1847069599        2.6781376497        5.3583347232
 O        -2.7481033419        2.6430501039        6.0326292922
 O         0.7715766940        0.5691180206        4.4760081747
 C        -1.0661476599        0.7234243724        7.4374097691
 C        -1.5731365379       -0.8706699325        5.5325537136
 C         0.9475479504        3.4272158509        4.2435385336
 C         0.0301646770        3.8542990331        3.1760583630
 C         0.4645780267        4.8453878553        2.1038389728
 C         0.8092437982        3.9384194416        0.8182569392
 C         0.0651982515        4.4705612498       -0.5015098960
 C        -0.6343462059        5.8795945375        1.8865794924
 C         1.8410045717        5.4864390578        2.5778576013
 O        -1.1006182632        3.3915919606        3.0201879008
 O         1.3997615008        2.9035463508        0.8912279822
 C         0.6657477421        3.7182515963       -1.7613884417
 C        -0.3484158368        3.9235283265       -2.8550234301
 C         0.1064590962        3.2034740299       -4.2408889736
 C        -0.0960032510        1.7068897540       -4.1169661810
 C        -1.5375802831        1.1782603092       -4.0976952194
 O        -1.4761086826        4.2962486011       -2.5864385606
 O         0.8646236741        0.9754080890       -3.9700563814
 C        -0.7955977761        3.7335935792       -5.3875205558
 C         1.5688624220        3.6986182997       -4.5818829343
 H        -0.7008290848       -4.5145960959       -6.5258145632
 H         0.1532756612       -5.8669715154       -5.6624231392
 H        -1.3597891559       -5.0496951438       -4.9822589486
 H         4.3889858453       -4.5377042095       -4.6065151136
 H         4.9603171577       -3.0044105278       -5.0380094577
 H         3.4702345526       -5.5241647614       -6.3384407354
 H         1.8134541468       -6.2281383216       -6.1713003484
 H         2.8429084225       -5.7793457723       -4.7701199432
 H         3.0529973032       -3.4706075025       -7.2954811854
 H         1.4813922826       -3.9134854751       -7.7066664422
 H         1.8044504256       -2.2927308015       -7.0500253924
 H         5.8234256670       -2.6496938177       -3.1277023009
 H         4.3813138051       -2.4618373839       -2.3390275018
 H         2.8993792083       -4.4539586454       -0.5979815646
 H         3.4623152939       -5.0340740930        1.0470904293
 H         4.7631413847       -6.5911254637        0.1941331874
 H         6.3628208116       -6.0545940552        0.6111360071
 H         5.9800060798       -6.8963707106       -0.8235087433
 H         7.3961202649       -3.2467395192       -1.2641072134
 H         7.6888127067       -4.6054945796       -0.1520149521
 H         7.5280014555       -4.9194378516       -1.8907880272
 H         2.9300014104       -2.5696978128        1.8059392442
 H         1.5972196647       -3.3791742344        1.2319500393
 H         0.0479740316       -0.5122695645        1.6872405047
 H         0.0523160361        1.4407684063        1.4863424166
 H         1.7684105462       -0.5016480300        2.3588538229
 H         2.6671789324        0.9764224802        1.9838003714
 H         3.4881591165       -0.6038317393        2.1927606284
 H         4.3078050240       -0.0600080392       -0.2692659751
 H         3.1815008089        0.0138414906       -1.6411081051
 H         3.2002455777        1.4616030367       -0.5924329694
 H        -2.3283284787        0.1900892782        1.7558714283
 H        -2.2158442697        0.8658342285        0.2658562849
 H        -5.6375608577       -0.5460589460       -0.5265666737
 H        -6.2149221192       -2.0469231364        0.2212667910
 H        -3.6208507551       -0.3589087322       -1.4641688828
 H        -4.4473274791       -1.8095123777       -1.8226579715
 H        -2.7604765853       -1.8642758917       -2.1685666285
 H        -3.0133459589       -3.7350515656        1.3460498798
 H        -4.1206164892       -3.9332476118       -0.0408357753
 H        -2.4157128451       -3.8489992971       -0.5436912422
 H        -6.3912665942       -0.5618856570        2.4594186266
 H        -7.5206190026       -0.4046732997        0.9877418590
 H        -4.0367653524        2.8972049981        3.2985861032
 H        -4.6616449116        2.7400776672        4.9239172247
 H        -6.7682780703        4.3718108722        2.9079328137
 H        -7.3333011558        3.8608119678        1.4593127753
 H        -5.5163641787        3.6689805143        1.7286607301
 H        -8.5035723818        0.9828235829        3.1082907191
 H        -8.6885879084        2.6625700031        3.4732083949
 H        -8.9051976954        2.1699068891        1.8246226673
 H        -4.1882937297        0.3392875493        4.8174894272
 H        -2.9971630791        0.7882639014        3.5648927218
 H        -0.7908347494        3.1348977814        5.5234067481
 H         0.9625259342        2.7268095814        6.1966232117
 H        -0.2915410913        1.4433183645        7.6861451992
 H        -0.7814980758       -0.2434626554        7.8370794889
 H        -1.8576167317        0.9519145980        8.0551139062
 H        -1.9241072955       -0.9523898522        4.4795830447
 H        -0.7893692215       -1.4869069784        5.7732837197
 H        -2.3653428263       -1.1779793085        6.1650697740
 H         1.7036142521        2.7198843104        3.9458667889
 H         1.4248461506        4.3130879880        4.6807156328
 H        -1.0573471582        4.2151698451       -0.4172005562
 H         0.1940706464        5.6197370481       -0.6378849636
 H        -1.4932418385        5.3655178019        1.6362548218
 H        -0.5400174721        6.7119762498        1.1952377100
 H        -0.6665135447        6.4012975236        2.8188801069
 H         2.1856848653        6.1084844329        1.7960437180
 H         1.7277566313        6.0910021251        3.4222638356
 H         2.5489617339        4.6888509525        2.8188201656
 H         1.6787100843        4.1108369249       -1.8843398703
 H         0.6804991491        2.6948324450       -1.4777921105
 H        -1.8780012884        1.2403456258       -5.1132683973
 H        -1.5251715672        0.1237340503       -3.8544493733
 H        -2.2027139982        1.7602661718       -3.5218886166
 H        -1.8321385119        3.5545573088       -5.0911238508
 H        -0.5206401097        3.2523601081       -6.2973882224
 H        -0.5848875429        4.8067516543       -5.4410832030
 H         1.7474526131        3.5728901677       -5.6665538268
 H         1.7744968100        4.6744831795       -4.2221324660
 H         2.2585580472        2.9770391885       -4.2398051023
 Na        0.9332696086       -1.1723559865       -3.0092676524
