155

 C         0.5475586867       -5.1337653411       -4.8749846397
 C         1.3182210941       -3.7437419150       -4.6869679179
 C         2.7539979860       -3.6149017671       -5.3197347022
 C         3.8251641933       -2.7536641070       -4.2320746637
 C         5.3171238218       -3.2984886110       -4.2375188911
 C         3.2993377556       -5.0898795034       -5.5948680580
 C         2.6409901782       -2.8172716563       -6.6847271770
 O         0.6468934708       -2.8557791921       -4.2282350539
 O         3.4736173708       -1.7771475977       -3.6725201640
 C         6.0835758374       -3.1799768018       -2.9264658347
 C         5.1488384906       -3.9667151867       -1.9241887999
 C         5.6420749462       -4.2494614137       -0.5166388816
 C         4.6263243753       -3.3646927485        0.3500290982
 C         3.2528905151       -3.9082758826        0.5360648924
 O         4.0491899365       -4.3046059883       -2.3037174700
 O         4.9460825913       -2.2483944580        0.6877717355
 C         5.5954834773       -5.7276203129       -0.3490719496
 C         7.1664021250       -3.7548919761       -0.4624479069
 C         2.3516666993       -2.7444763518        1.0249399583
 C         2.1768311045       -1.6552631535       -0.0969609317
 C         1.9533923967       -0.0823735755        0.2040871164
 C         0.4202516030        0.1421137981        0.1000866441
 C        -0.5795200344        0.1984840170        1.3094469943
 C         2.5046570110        0.1386795638        1.6434563601
 C         2.7134747193        0.7150930755       -0.8103543063
 O         2.1538750994       -2.0079402744       -1.2576056939
 O        -0.1273666492       -0.0545582326       -1.0225786897
 C        -1.9931783440       -0.4182924837        0.9166198234
 C        -2.0162079203       -1.8518154042        0.2621661340
 C        -3.4110357061       -2.1832872642       -0.5149889048
 C        -4.7225070022       -1.9334651898        0.3626420087
 C        -5.8395066404       -1.0591604282       -0.2854670588
 O        -1.1554637808       -2.6699994841        0.3905507386
 O        -4.7435195038       -2.2847707451        1.5151952300
 C        -3.3898918991       -1.5147268413       -1.8984160921
 C        -3.4694353636       -3.7011717199       -0.7767976015
 C        -6.8397473834       -0.3543243404        0.7525482955
 C        -6.1356177369        0.7376575695        1.5610045461
 C        -6.9122985898        1.6339398478        2.6145559369
 C        -6.0771692736        1.3469098787        3.9204198725
 C        -4.7491056151        1.9757980206        4.1253264651
 C        -6.8932004341        3.1319588568        2.1867821513
 C        -8.4135576372        1.1106168400        2.7108091421
 O        -5.0148800075        1.0541386149        1.3208500217
 O        -6.5519037465        0.5234105047        4.6506057441
 C        -3.6342641710        0.9143561128        4.3500182911
 C        -2.6657012437        1.3062208629        5.5034423639
 C        -1.4315882870        0.4465108720        5.8741483507
 C        -0.1292674110        1.0992596838        5.1770824598
 C         0.0745440007        2.6791636374        5.4499444685
 O        -2.8698826445        2.3098260432        6.1402486033
 O         0.7579134016        0.4940202753        4.5866583528
 C        -1.2167187818        0.5033834465        7.4587002723
 C        -1.6138961942       -0.9952215315        5.2357351084
 C         0.8056592293        3.4614877328        4.3052884419
 C        -0.1471830302        3.6985934317        3.1970101582
 C         0.3895188621        4.7351232625        1.9444168974
 C         0.6325759848        3.8111922586        0.7133672815
 C        -0.4541876182        3.8599606065       -0.3871984333
 C        -0.7498651748        5.7199326349        1.8714864719
 C         1.6531059074        5.6209985859        2.1485662169
 O        -1.2309947004        3.1995398129        3.0216255496
 O         1.6975561633        3.2652421021        0.5902107744
 C         0.2076705967        3.4473155030       -1.7461940219
 C        -0.5025791916        3.9336789132       -2.9877303089
 C         0.0529419022        3.4408412363       -4.4047064926
 C         0.2009081038        1.8364104310       -4.2685691661
 C        -1.1134560829        1.0779420637       -4.0857629547
 O        -1.1309381889        4.9654679632       -3.0129179426
 O         1.2798930634        1.3281052910       -4.1845742057
 C        -1.0205572737        3.7679162778       -5.5152030950
 C         1.3384423877        4.0920273980       -4.7419608906
 H         0.7209057200       -5.3352275542       -5.8943906154
 H         0.9006085119       -5.8973674774       -4.2104226807
 H        -0.5164860629       -5.1284960599       -4.5854339173
 H         5.3658353910       -4.3200275794       -4.6303381948
 H         5.7855562028       -2.7428057941       -5.0462481715
 H         4.3324964375       -5.3172185114       -5.8769986460
 H         2.7101597509       -5.4354039781       -6.4398997018
 H         3.2315855145       -5.8145252265       -4.8130927606
 H         3.5767129723       -2.4026240565       -7.0565650808
 H         2.2741520886       -3.5147088090       -7.4423931573
 H         1.9262480742       -1.9364768771       -6.6189902400
 H         7.0436570502       -3.6873442124       -3.0315422750
 H         6.1557824786       -2.1873336082       -2.5633199858
 H         2.9879456417       -4.2904420242       -0.5130481164
 H         3.1566508323       -4.7848877567        1.1690838595
 H         4.5554537307       -6.2051777131       -0.2570605295
 H         5.9620103852       -6.1792552660        0.7123448337
 H         6.0754397928       -6.4057731656       -1.0712584229
 H         7.1013123581       -2.6379813095       -0.6335199887
 H         7.6312067608       -3.9811962086        0.4694671715
 H         7.7681396540       -4.1785602253       -1.2609268097
 H         2.8110685165       -2.3019047620        1.9461033751
 H         1.3718514266       -3.1001024213        1.1910329336
 H        -0.0795226551       -0.3133510056        2.0529682554
 H        -0.7045501072        1.1472118560        1.7465553985
 H         2.1067763782       -0.3627990693        2.5279458700
 H         2.3786678521        1.2081338433        1.9393880571
 H         3.5039799397       -0.0957310315        1.3837750067
 H         1.9850455729        1.4193982743       -1.4060699760
 H         3.3529250106        1.4609263894       -0.3088765674
 H         3.2143685400        0.1451738535       -1.5769609879
 H        -2.6149749854       -0.3449794717        1.8192329217
 H        -2.4560968540        0.1801613781        0.1899852501
 H        -5.2278364291       -0.3797710177       -0.8282101332
 H        -6.3911621032       -1.5763582227       -1.0666328246
 H        -3.4326268897       -0.4102013703       -1.8058560972
 H        -4.1808127273       -1.8500808327       -2.5168353255
 H        -2.5061699599       -1.8134037166       -2.5020236494
 H        -3.8885139928       -4.2401934969        0.0405886921
 H        -4.1816478655       -3.8968997104       -1.6287102599
 H        -2.4741302162       -3.8924664510       -1.2226873812
 H        -7.3805719211       -1.0926405757        1.3047281808
 H        -7.6818182402        0.1170754460        0.1951718755
 H        -4.5191269758        2.7299614815        3.4025713864
 H        -4.8964895348        2.5586355548        5.0761713012
 H        -7.3951758019        3.7640361611        2.9881203253
 H        -7.5633183266        3.2849333071        1.3449920354
 H        -5.7832554850        3.4021597594        2.0804869124
 H        -8.4038771790        0.2093823097        3.2486610996
 H        -9.0431416108        1.7440079193        3.3984503266
 H        -8.9395182668        1.0829379207        1.7650558809
 H        -4.0589507285       -0.0380406754        4.7288781819
 H        -3.2005486913        0.5136401292        3.4265569560
 H        -0.9233757973        3.1343136031        5.7692409718
 H         0.6079143450        2.8053718771        6.3986804340
 H        -1.5750339624        1.4970213545        7.7982286405
 H        -0.1758139827        0.2374660167        7.6745552421
 H        -1.8362606500       -0.3179917746        7.8473719049
 H        -1.7733310675       -0.8632543198        4.1157509352
 H        -0.7883370464       -1.6382831671        5.4076798231
 H        -2.4640339204       -1.4954089899        5.6816645239
 H         1.7759294457        3.0695278177        4.0284315454
 H         1.0964183682        4.4125451402        4.6842167413
 H        -1.3718768947        3.1724895699       -0.1845380121
 H        -0.8795017508        4.9307958688       -0.2956113519
 H        -1.6447941625        5.2195488575        1.7795326918
 H        -0.4613141900        6.5843563061        1.2332133796
 H        -0.7893283094        6.1998993961        2.8198198487
 H         1.6783757363        6.4332255707        1.3893042999
 H         1.7720146159        6.1942702741        3.0411422670
 H         2.5863622730        4.9856809529        1.9945707819
 H         1.2389358497        3.7694844108       -1.8646462339
 H         0.3700625433        2.4140067607       -1.6588112184
 H        -1.9425937934        1.4011218760       -4.7416197169
 H        -0.9412826087       -0.0244634766       -4.2048166444
 H        -1.3725617736        1.3080652051       -3.0592201939
 H        -2.0451200016        3.6555934268       -5.0937602154
 H        -1.0403012605        3.1944693171       -6.4215829633
 H        -0.9178717617        4.8140384107       -5.8077204478
 H         1.8349004816        3.5998144284       -5.5956048617
 H         1.3152474368        5.1878518175       -4.7679864383
 H         2.0711191695        3.8837497224       -3.9732711376
 Na        1.2257509814       -0.7589785686       -3.0825422300
