155

 C         0.8368374333       -5.0418613727       -4.4040950496
 C         1.4228624517       -3.6951472629       -4.5856326809
 C         2.8911532995       -3.5377238570       -5.3674106367
 C         3.9088210451       -2.7431066841       -4.2660838572
 C         5.4883165897       -2.8830382938       -4.2632120280
 C         3.4072323331       -4.8137344638       -6.0425139919
 C         2.6082076273       -2.5088132201       -6.5096481678
 O         0.8575708718       -2.6740623433       -4.2611848766
 O         3.4651530912       -1.8300222211       -3.6641291780
 C         6.0544257514       -2.9689838249       -2.8376689113
 C         5.2840327948       -4.0199790065       -2.0428993937
 C         5.7400390539       -4.2598042260       -0.5767102721
 C         4.8030209362       -3.3816090670        0.4608922026
 C         3.3370317519       -3.7861142596        0.6494153978
 O         4.4726359199       -4.7050310222       -2.6279323760
 O         5.2785636927       -2.4504394939        1.0498001494
 C         5.4476475497       -5.7639687612       -0.1954933690
 C         7.1865209885       -3.8746473451       -0.4070587256
 C         2.5801568611       -2.5592787871        1.2387189061
 C         2.2671075181       -1.5982731299        0.0042684661
 C         1.7108551463       -0.1998461546        0.3258999637
 C         0.3170882937       -0.1114857475       -0.1991569121
 C        -0.7366826838        0.0406340559        0.8606287225
 C         1.7211452350        0.1200341947        1.7762156009
 C         2.7380103721        0.8168350764       -0.4911854606
 O         2.3101004648       -2.0869980276       -1.0926387230
 O        -0.1078586833        0.0119384013       -1.3763678583
 C        -2.2455521164       -0.1940510166        0.3281055876
 C        -2.3122668762       -1.6729271695        0.1419482420
 C        -3.5623438913       -2.2528864960       -0.5849076654
 C        -4.8422226814       -1.7435197362        0.2220567593
 C        -5.9732333791       -1.0084118826       -0.4916281008
 O        -1.5178534203       -2.4616949601        0.6676512201
 O        -4.9298812337       -2.1389136209        1.3548665879
 C        -3.4494423185       -1.7457804955       -2.1087729167
 C        -3.5551875785       -3.7776586310       -0.6244700721
 C        -6.9150672210       -0.4001176499        0.5739775340
 C        -6.1684925363        0.6362610906        1.4608264589
 C        -6.9560169167        1.4036480663        2.5233749854
 C        -6.1454785219        0.9068038890        3.9524757897
 C        -4.8545724131        1.5563605955        4.3128968906
 C        -6.7306304026        2.8913771720        2.3252492227
 C        -8.4382041840        1.0233150994        2.5234016731
 O        -4.9889385774        0.7701417347        1.2538352667
 O        -6.7148170787        0.1238407586        4.6911669632
 C        -3.8742547217        0.5670052147        4.8904632044
 C        -2.6426491805        1.3163338781        5.5452095295
 C        -1.3342050287        0.5462336209        5.9209601910
 C        -0.0796995654        1.2322499652        5.1960090867
 C         0.1921385592        2.7160455611        5.6190168472
 O        -2.7268347902        2.5214122645        5.7171476176
 O         0.5898589186        0.6969863300        4.3341657305
 C        -1.1868891084        0.6437516717        7.4938440041
 C        -1.4125765030       -0.8889990953        5.4135237732
 C         0.7474330212        3.4178249987        4.3658901459
 C        -0.1766492223        3.5472186346        3.1137966107
 C         0.2307833251        4.8157240789        2.1240763729
 C         0.7015082387        4.1849637311        0.7504262548
 C        -0.2503207854        4.3317448418       -0.4011055297
 C        -0.9213717555        5.9113932047        2.0515027242
 C         1.4501401485        5.7307619080        2.6842041950
 O        -1.0568781704        2.8063026150        2.7504539420
 O         1.7453230240        3.6059377099        0.7247620526
 C         0.1015486243        3.5500297522       -1.6873441606
 C        -0.5240455979        4.0211692045       -2.9866132627
 C        -0.0039155702        3.3390589739       -4.4552213462
 C         0.2608297314        1.7886982116       -4.2808243495
 C        -0.9927070147        0.8890964121       -4.5672186720
 O        -1.5016053714        4.6920990936       -3.0781634687
 O         1.3223174175        1.3769571861       -3.9057213194
 C        -0.9616386497        3.7855120535       -5.5193142003
 C         1.3724217827        3.9792290618       -4.7727456935
 H         0.7429331275       -5.4377198645       -5.3937841004
 H         1.5255715789       -5.6518586191       -3.8379536692
 H        -0.1475032990       -5.1270680051       -3.8658017270
 H         5.7722634501       -3.6753393615       -4.8900669221
 H         5.8401255342       -2.0315770676       -4.7793418170
 H         4.1715551998       -4.6097051922       -6.8095131301
 H         2.7468623800       -5.5615592750       -6.5699618175
 H         3.9880042073       -5.5188495104       -5.3638021142
 H         3.5216563416       -2.4390297487       -7.0812166887
 H         1.8280787510       -2.8069890614       -7.2115868175
 H         2.3572385970       -1.4323961092       -6.1320797382
 H         7.1313191837       -3.3103449394       -2.7466989014
 H         5.9358235190       -2.0211143352       -2.2801733329
 H         2.9016333197       -4.0163205732       -0.3726083619
 H         3.2931852076       -4.7310934515        1.1745523439
 H         4.5765617148       -6.2236665858       -0.7563832074
 H         5.3304805305       -5.9458670303        0.9468175952
 H         6.0819321136       -6.6489826543       -0.5242623140
 H         7.4536800359       -2.8667008670       -0.6397597988
 H         7.4480895477       -4.1010039805        0.5922681877
 H         7.7158627250       -4.5348837213       -1.1110917595
 H         3.2253671173       -1.9439463219        1.9035045410
 H         1.6569614988       -2.7603484254        1.6809241983
 H        -0.4979347175       -0.6847231230        1.5896427045
 H        -0.6445867285        1.0120607042        1.4242646059
 H         1.2790295131       -0.7123534699        2.3064171692
 H         1.2553737177        1.0683079132        2.0953174899
 H         2.7655065522        0.2069923622        2.0728138577
 H         3.5370749767        0.2685080216       -0.9864585021
 H         2.2338364916        1.3730726026       -1.3143326097
 H         3.2967291928        1.3721652061        0.1947796317
 H        -2.9418949295        0.0376566034        1.0913343946
 H        -2.4165571544        0.3641645773       -0.5440632916
 H        -5.6923338758       -0.2966946940       -1.2413304221
 H        -6.4343201193       -1.8803437287       -0.9851624890
 H        -3.2412678509       -0.7077061991       -2.1679910891
 H        -4.3803033026       -1.8209075703       -2.5902725933
 H        -2.7481215037       -2.2938888909       -2.6535745082
 H        -3.5812569254       -4.0741119047        0.3557124422
 H        -4.4542809910       -4.1697741501       -1.1151073884
 H        -2.8570863082       -4.0714498330       -1.3314398119
 H        -7.2241663779       -1.1792293246        1.2484969015
 H        -7.8781864039       -0.1521275947        0.0977193714
 H        -4.4908899454        2.0676455460        3.4278446898
 H        -5.1194001384        2.3881585020        5.0276509906
 H        -7.0092866006        3.4480212537        3.2255880035
 H        -7.2759260286        3.0954133320        1.3311561970
 H        -5.7057118414        3.0138817621        2.0522590378
 H        -8.5557966681       -0.0284780652        2.6136947999
 H        -9.0254354372        1.4539346210        3.4071480174
 H        -8.9157802169        1.3118769240        1.5752039563
 H        -4.4219494933       -0.0201703743        5.7110922451
 H        -3.6531581632       -0.2596254702        4.1637087871
 H        -0.7985938816        3.1725318390        5.8835507622
 H         0.7584059681        2.7043655511        6.5407404073
 H        -0.9964273508        1.6871340366        7.7737927685
 H        -0.4810518255       -0.1274407113        7.7158911339
 H        -2.1900521249        0.2662597698        7.9500643718
 H        -1.3280985765       -0.8451222239        4.2488807641
 H        -0.5614807680       -1.4537790245        5.6856880771
 H        -2.3422857861       -1.4274418101        5.6129933067
 H         1.6278114529        2.8672891013        4.0303178582
 H         1.0811818410        4.3933522420        4.6342249795
 H        -1.3023159678        4.3130563203        0.0297744415
 H        -0.0913402974        5.3700270049       -0.7943092114
 H        -1.8803449044        5.4946465998        1.7073328249
 H        -0.6663857671        6.8182051823        1.4459856615
 H        -0.9037569039        6.1729662767        3.1253482316
 H         1.7014003950        6.4947425591        1.9492558782
 H         1.3217162470        6.1985282923        3.6425568809
 H         2.4206083384        5.1927610891        2.6809778809
 H         1.1993499165        3.4980418058       -1.6101207043
 H        -0.2026346885        2.5227232858       -1.6455783709
 H        -1.3490636897        0.9519438680       -5.6258817349
 H        -0.9181627132       -0.2063548578       -4.2205372163
 H        -1.7518015552        1.4698899372       -4.1063685827
 H        -1.9811490257        3.3237060538       -5.4214502233
 H        -0.5435102565        3.6976112708       -6.5440235859
 H        -1.1714752757        4.8118973848       -5.4454287154
 H         1.6097443731        3.7947301710       -5.8729411086
 H         1.3082277864        5.0647632393       -4.7442722137
 H         2.2770845973        3.5867983719       -4.3243811420
 Na        1.6091493230       -0.7832506279       -3.1028142069
