155

 C         2.0141128739       -4.4921906893       -6.0129739741
 C         2.3920927371       -3.1051612081       -5.3918590582
 C         3.7473450482       -2.4305275023       -5.8703273494
 C         4.5750171942       -2.3459814768       -4.6010837560
 C         5.7837764831       -3.1741874361       -4.3185440272
 C         4.3546420857       -3.1151216686       -7.1909805301
 C         3.3219793736       -0.9691984364       -6.2002473773
 O         1.6815487669       -2.4925411406       -4.6429752869
 O         4.1801563264       -1.5307242751       -3.7687511640
 C         6.1869582278       -3.2961904349       -2.8217219586
 C         5.5971846352       -4.4311526233       -1.9889094753
 C         6.0267478288       -4.3858210682       -0.3851316620
 C         5.1377534434       -3.4039570086        0.3410836003
 C         3.6587632930       -3.6447684800        0.8691037156
 O         4.9421078821       -5.3274848096       -2.4321531229
 O         5.5964170049       -2.2728081612        0.4243958984
 C         5.6364240140       -5.8488916765        0.1153460473
 C         7.5539818843       -4.0862026029       -0.4248995846
 C         3.0705866288       -2.4225256236        1.5352361055
 C         2.5395952032       -1.4332525643        0.4333509954
 C         1.7452821006       -0.1119459732        0.8295827907
 C         0.4193712047       -0.2547285215       -0.0255353677
 C        -0.9339541700       -0.4506076747        0.7884163382
 C         1.5265538607        0.3347688623        2.3114879466
 C         2.5070020405        1.0293571026        0.1011741098
 O         2.6515596384       -1.7192773653       -0.7756105544
 O         0.3488279370        0.0900567819       -1.1954223160
 C        -2.1419506082       -0.7443822053       -0.0598061587
 C        -2.3828549764       -2.1775186619       -0.3878868186
 C        -3.8318093156       -2.6434936005       -1.0181274341
 C        -4.9194234681       -2.0063921329       -0.1521770006
 C        -6.3150619961       -1.6709238524       -0.6550166503
 O        -1.5758785262       -3.0722643529       -0.2497203159
 O        -4.6521999808       -1.8852754986        1.0478523606
 C        -4.1054571809       -2.3845065455       -2.5014693651
 C        -3.8897700662       -4.2643834198       -0.8351481126
 C        -7.2770560503       -1.2329352434        0.4465260643
 C        -6.7501373725        0.0344891380        1.2276629550
 C        -7.2725979215        0.5239906990        2.6425293956
 C        -6.0936256460        0.2474877343        3.5740154368
 C        -5.0203502386        1.3049220903        3.7284508418
 C        -7.7047342612        2.0038725073        2.5381910942
 C        -8.4490257607       -0.3116033377        3.1221254958
 O        -5.8665439229        0.7258514844        0.7044777806
 O        -6.0319528924       -0.7913657576        4.1993108919
 C        -3.7788744592        0.8378887272        4.4865563527
 C        -3.4839600074        1.6395353620        5.7641216856
 C        -2.2545081364        1.2617506837        6.5709841826
 C        -1.1434294974        1.6196761050        5.5493930124
 C        -0.6648046921        3.0364973645        5.4795258003
 O        -4.1570237288        2.6112160818        6.0641014517
 O        -0.5573313101        0.7557595749        4.8854588062
 C        -2.2390679673        2.1200626566        7.8825057795
 C        -2.2204050628       -0.2543941426        6.8636597087
 C         0.3489391474        3.3335147468        4.4102263481
 C        -0.1554679533        3.5956793339        2.9415175797
 C        -0.2368317799        5.0870563340        2.3438561634
 C         0.4263227393        4.9068018918        0.8874632800
 C        -0.5342641625        4.5360299455       -0.3142217386
 C        -1.6879380111        5.4716487504        2.1993578955
 C         0.6518001312        5.9906040752        3.1967269649
 O        -0.4182392309        2.6321014195        2.2948360780
 O         1.6418339856        5.0557864142        0.7156401607
 C         0.3430370281        3.9198996425       -1.4798655852
 C        -0.4679049863        3.5354157318       -2.7065380567
 C         0.3073319863        3.2316369878       -4.2035551959
 C         0.6982803126        1.8140092909       -4.1449380230
 C        -0.1738334091        0.7911090319       -4.8614799961
 O        -1.6893568785        3.3850057015       -2.7111715865
 O         1.7451759005        1.5110478948       -3.5356970183
 C        -0.7728519659        3.6524438820       -5.2467861179
 C         1.5988339014        4.0385479563       -4.3264673194
 H         1.8153800329       -4.3874693845       -7.0765539586
 H         2.6824773195       -5.3009586407       -5.9982236600
 H         1.0180183592       -4.9510834058       -5.6703545021
 H         5.5447712780       -4.0969732684       -4.8068391654
 H         6.6448465667       -2.7865264584       -4.8984960219
 H         5.4255875398       -3.3937725862       -7.0065975886
 H         4.5125797988       -2.4048346384       -8.0241572493
 H         3.5983583087       -3.8076438052       -7.4454920739
 H         4.1904118868       -0.4536669290       -6.5265977724
 H         2.5416742752       -0.9026283448       -6.9163797740
 H         3.0530532776       -0.4707983110       -5.2869289791
 H         7.2051373133       -3.4784019151       -2.7382395155
 H         6.0220065825       -2.3821976624       -2.2901665579
 H         3.0264652932       -3.9644315849       -0.0102741307
 H         3.6198466881       -4.4662441050        1.6187294241
 H         4.6737712866       -6.2456823902       -0.1353656687
 H         5.6695702015       -5.8285297374        1.0924314766
 H         6.3908929552       -6.6264699182       -0.0767901732
 H         7.6248539480       -2.9566610490       -0.3868054143
 H         8.0243049405       -4.3425214628        0.4924026081
 H         7.9796088279       -4.5410803109       -1.2480454528
 H         3.7709909398       -2.0178960069        2.2495859584
 H         2.1139112720       -2.5282390644        2.0654486836
 H        -0.7177423901       -1.1423136971        1.6322872165
 H        -0.8556838589        0.6414439411        1.0349241681
 H         1.0221273039       -0.4875433070        2.8169927883
 H         0.9767327729        1.2589905582        2.2760357735
 H         2.4522086972        0.4556211934        2.8656884848
 H         3.0013671985        0.7509728989       -0.8640982898
 H         1.8527018635        1.8310003685       -0.1389383797
 H         3.2537493080        1.2926955839        0.7515187057
 H        -2.9919721831       -0.3192585454        0.3662779864
 H        -2.1804496161       -0.1826570078       -0.9678585850
 H        -6.4094534084       -1.1972727952       -1.5761837589
 H        -6.7083289929       -2.6777532111       -0.9315711368
 H        -4.3867132793       -1.3877035777       -2.7212510229
 H        -4.8079406818       -3.0775290226       -2.7926901937
 H        -3.1772328523       -2.5837515180       -3.0694624466
 H        -3.8571237302       -4.4395612045        0.2218543116
 H        -4.7767448859       -4.6717193372       -1.2604914936
 H        -3.1387536054       -4.8637335567       -1.4015782303
 H        -7.4005076682       -2.1451363144        1.0514137978
 H        -8.2502944757       -0.9000214897        0.1015156909
 H        -4.8862623743        1.7771309166        2.7281861249
 H        -5.5400638153        2.1334812289        4.3212238234
 H        -8.1410964648        2.3819372138        3.5388707151
 H        -8.5006061231        2.0720515220        1.6710994932
 H        -6.9208176983        2.7273476455        2.2595149336
 H        -8.0686926337       -1.2531618385        3.5877144682
 H        -8.8629768373        0.2365512465        3.9077083975
 H        -9.2155628998       -0.6074157706        2.4076509591
 H        -3.8536412052       -0.2680124884        4.6015476313
 H        -2.8190168893        0.9425658528        3.9444596224
 H        -1.5320003049        3.6905791626        5.5839067714
 H        -0.3114639017        3.1811955120        6.5449497551
 H        -2.5967271807        3.1565741119        7.6770114814
 H        -1.2486574687        2.2128160753        8.4127358298
 H        -3.0460333627        1.7289725372        8.4632719605
 H        -2.0138580970       -0.8569410194        6.0181263596
 H        -1.3997424342       -0.5113149899        7.5803946821
 H        -3.1365243825       -0.6010042323        7.3148537325
 H         0.9805594661        2.4888876696        4.5272951646
 H         0.9626137851        4.1700062411        4.7228827742
 H        -1.3819114100        3.8525360595       -0.1678522472
 H        -1.0339069458        5.5164221429       -0.6564409407
 H        -2.2391263930        4.8339583161        1.5515437645
 H        -1.6939356981        6.3765236613        1.4917280036
 H        -2.2342317555        5.4724433856        3.1869308720
 H         0.6575758145        6.9420834528        2.6947930561
 H         0.1715024416        6.1349001254        4.1654948768
 H         1.6340885037        5.5952473007        3.3741337125
 H         1.3557291369        4.4003211414       -1.6115892376
 H         0.7249402694        2.9453474114       -1.2308764817
 H        -0.5143099753        1.3197673589       -5.7143650001
 H         0.2927555080       -0.1810269070       -5.1606311908
 H        -1.0456806084        0.6412759611       -4.2166081268
 H        -1.7007678043        3.1275357480       -5.3462581209
 H        -0.2160780763        3.7590270880       -6.1372849775
 H        -1.1986578382        4.6877073140       -5.0627919579
 H         2.0854569328        3.8822081901       -5.2305859283
 H         1.3272630351        5.0848250384       -4.4361829087
 H         2.1573577584        3.6608408707       -3.4847789862
 Na        2.1836799349       -0.8341222427       -2.7633774346
