155

 C         2.0897923300       -4.1128534902       -6.1400871295
 C         2.3888948054       -2.7404485698       -5.6258387067
 C         3.8623726346       -2.1037631288       -5.8615964805
 C         4.4836447880       -2.1388067470       -4.4197102871
 C         5.4460945625       -3.3342940937       -4.1450356906
 C         4.7392660394       -2.8654650481       -6.8994551340
 C         3.5415115179       -0.6076918165       -6.1825501041
 O         1.6302296974       -2.2169389703       -4.8573654627
 O         4.1017068295       -1.3187218749       -3.5740392182
 C         6.2957947586       -3.3531248343       -2.8878932899
 C         5.5842634223       -4.1308901368       -1.8339958542
 C         6.1272120678       -4.3989282459       -0.4739994725
 C         5.4431461249       -3.3660418282        0.5179330024
 C         4.0650031259       -3.9178494047        1.0366671502
 O         4.4713962000       -4.5055252156       -2.0706679843
 O         5.8697643075       -2.2607892983        0.8569392710
 C         5.7694750999       -5.8322175546       -0.0609330784
 C         7.6392066557       -4.0164191151       -0.4628122289
 C         3.2525635693       -2.7011863926        1.4231302394
 C         2.5008507606       -1.9468357122        0.2206674765
 C         1.7848371203       -0.5674898755        0.5286849391
 C         0.4624439964       -0.4027665008       -0.2596358896
 C        -0.8402780777       -0.1579014682        0.5255149676
 C         1.4442470720       -0.4717600712        2.1162992714
 C         2.6640030194        0.6280994868        0.0193479197
 O         2.7168036022       -2.2793459714       -0.9146095157
 O         0.4280306459       -0.6116730486       -1.4420341737
 C        -2.0611398141       -0.5712006895       -0.2481321956
 C        -2.1770583043       -2.1024306534       -0.4959438759
 C        -3.6617782725       -2.5314409079       -1.0159759141
 C        -4.7499183677       -2.1502564107        0.0704712531
 C        -6.1941388654       -1.9785248515       -0.4816804277
 O        -1.3553463552       -2.9418401623       -0.2101151612
 O        -4.5103622958       -1.9281839148        1.2199525344
 C        -3.9452728306       -1.9613729747       -2.3870817489
 C        -3.7891761126       -4.0818595457       -1.0573116675
 C        -7.1776910556       -1.6669556614        0.6275369827
 C        -6.8817165117       -0.2025805722        1.1115861000
 C        -7.5144163210        0.2814595386        2.4571649067
 C        -6.3157814631        0.0640371332        3.5670366818
 C        -5.2086869471        1.2358619414        3.6136829832
 C        -7.8223494770        1.7509152612        2.4353461680
 C        -8.6935865902       -0.6052980515        2.9274292917
 O        -6.0741403909        0.4602344858        0.4965691040
 O        -6.3224733168       -0.9311950035        4.2152521015
 C        -3.9971666573        0.8117689884        4.5400192974
 C        -3.6523241263        1.8994123642        5.6323617577
 C        -2.3150726987        1.5023758435        6.4769987833
 C        -1.1357887912        1.8166964815        5.5976186771
 C        -0.5965410409        3.2946212452        5.5758798123
 O        -4.2793267957        2.8956380946        5.8714651652
 O        -0.6144251763        0.9454309409        4.9050365535
 C        -2.2082902560        2.3763107646        7.7404675466
 C        -2.2937740029       -0.0367746029        6.8086260169
 C         0.4872486386        3.5278525318        4.4965630054
 C        -0.1614910348        3.6693979285        3.0531718357
 C        -0.3448308224        5.0653667114        2.3377921135
 C         0.2786337671        4.8501919429        0.9449838940
 C        -0.5068570927        4.1062225359       -0.1252937532
 C        -1.9429376565        5.1930586685        2.2570808155
 C         0.3184472596        6.2713762533        3.0143289626
 O        -0.5852937441        2.7282494532        2.4240890929
 O         1.4571036236        5.1717756177        0.7522659651
 C         0.3516756247        3.8045965100       -1.4480899781
 C        -0.5063871770        3.5857174579       -2.6622401242
 C         0.3198930716        3.3425821453       -4.0825109096
 C         0.7978563985        1.8324211490       -3.9582786434
 C        -0.1738975045        0.8041528872       -4.3985871236
 O        -1.7130303639        3.6511376754       -2.6971224222
 O         1.8718754452        1.4765423272       -3.4621869802
 C        -0.5981725956        3.4803902453       -5.2243987894
 C         1.6309211130        4.2513144446       -4.2006698203
 H         2.0061751348       -4.2210562630       -7.2147073927
 H         2.8505783050       -4.8596197852       -5.8975095181
 H         1.1438180073       -4.5811473974       -5.7401387832
 H         4.7920606017       -4.1597176815       -4.1214855373
 H         6.0211878691       -3.4719407974       -5.0244684015
 H         4.3893584561       -3.8924136036       -7.0327362531
 H         5.8397535877       -2.7585829928       -6.7649460344
 H         4.4530339059       -2.4165457071       -7.8597427401
 H         4.3928132576        0.0292532738       -6.1873795313
 H         2.9693580711       -0.5552701837       -7.0852238554
 H         2.8325632012       -0.2482733877       -5.3727281506
 H         7.2902960228       -3.7339959369       -2.9945854146
 H         6.4218278230       -2.3332814774       -2.4699092643
 H         3.4739286982       -4.6284870245        0.4487049531
 H         4.2193262829       -4.4312196917        1.9980999239
 H         4.7597587301       -5.9358092478       -0.2750363824
 H         5.8044134007       -6.2157995541        0.9701468440
 H         6.2008015415       -6.5778125213       -0.6633812826
 H         7.8642507924       -3.1650007773       -1.1299213866
 H         8.0766020365       -3.8470023440        0.5197752814
 H         8.1215246455       -4.9464903180       -0.7545781267
 H         3.7753913353       -1.8932172925        1.8419470951
 H         2.6207082825       -2.9912006115        2.2517464626
 H        -0.6741730824       -0.6282746958        1.4621200486
 H        -0.8414791606        0.9465212406        0.5858446333
 H         1.0271090531       -1.3753605783        2.5082490913
 H         0.8065905238        0.4099476752        2.1779975863
 H         2.3099167443       -0.2913297127        2.7085080854
 H         3.2005247855        0.3947228356       -0.8987741407
 H         2.0156559760        1.4609181889       -0.1993648005
 H         3.3259180424        0.9367207375        0.7749862986
 H        -2.8592450369       -0.1322317135        0.2861390472
 H        -2.1567649756       -0.0750643712       -1.1791098145
 H        -6.4057698553       -1.3495871664       -1.3104040803
 H        -6.4735664301       -2.9540558254       -0.9829280656
 H        -3.9343002501       -0.8050732612       -2.3698153481
 H        -4.8940331790       -2.2813104518       -2.8861099647
 H        -3.1827435132       -2.3013374607       -3.1024589015
 H        -3.6353700863       -4.4621678311       -0.0710178497
 H        -4.7640135179       -4.4059545299       -1.4569151035
 H        -2.9783061045       -4.6158048240       -1.6201018144
 H        -7.0286961605       -2.4026644994        1.4564117624
 H        -8.2198508971       -1.7210444456        0.2951204315
 H        -4.7866468911        1.5811623859        2.6525927917
 H        -5.6330594887        2.1930842731        3.9033990735
 H        -8.2790950693        2.1782501221        3.2878403736
 H        -8.7715753336        1.8620789389        1.7952477585
 H        -6.9991036622        2.2433835837        2.0294656436
 H        -8.2748180932       -1.6082863435        3.0660951009
 H        -8.9869003741       -0.3133568082        3.9131633477
 H        -9.5916191375       -0.6511426206        2.2875667798
 H        -3.9786377911       -0.1900054127        5.0070963092
 H        -3.0694665139        0.7020479348        3.9609886978
 H        -1.3868885289        3.9748566035        5.2493481264
 H        -0.3204375957        3.6639601887        6.6028227362
 H        -2.1973878945        3.3903054608        7.4701542132
 H        -1.2968435612        2.2700562071        8.2928631178
 H        -3.0605969515        2.1242599878        8.4404911764
 H        -2.0727598236       -0.5959008482        5.8817993955
 H        -1.4956359606       -0.2401592047        7.5467966529
 H        -3.1783826097       -0.4461517746        7.2157430141
 H         1.2856658501        2.7764113815        4.4242984732
 H         0.9802972252        4.4457904607        4.8808464066
 H        -0.9337501558        3.1442362049        0.2855537005
 H        -1.4295864154        4.7815585045       -0.3451354794
 H        -2.3217271641        4.3092888366        1.7099274670
 H        -2.3989149759        6.1490945584        1.7926519669
 H        -2.4652880332        5.1558619794        3.2695857200
 H         0.1507580632        7.2630793567        2.5844204129
 H        -0.0816920569        6.3319125607        4.0176276730
 H         1.3892398677        5.9768077674        3.0493637929
 H         1.0750158760        4.6200947292       -1.5088899620
 H         0.9883870897        2.9759484693       -1.4202361850
 H        -0.3305106955        0.9669180181       -5.4166246859
 H         0.2293254278       -0.2335481086       -4.2358664920
 H        -1.1157498509        0.9854156930       -3.9387535829
 H        -1.6304417778        3.1079916344       -4.9325411341
 H        -0.2232918440        2.9425606405       -6.0446735944
 H        -0.8332865837        4.5100704370       -5.5300535793
 H         2.3277037992        4.0172032258       -5.0003919647
 H         1.2331255536        5.3073470062       -4.2347234454
 H         2.1122843781        4.0054010019       -3.2570149085
 Na        2.0515951768       -0.9678665746       -2.8924175872
