155

 C         1.9557276332       -3.6074910131       -6.3600087886
 C         2.4423583495       -2.5263604984       -5.5173463892
 C         3.9360067339       -1.8496273651       -5.7406818408
 C         4.7176412037       -2.0756343142       -4.4424604231
 C         5.7001502350       -3.2924426290       -4.3504428523
 C         4.4992194419       -2.2932726525       -7.0456398451
 C         3.5593969732       -0.3320854335       -5.7975242031
 O         1.7499275279       -1.9604036690       -4.7363148028
 O         4.5766385675       -1.2901970714       -3.4813739654
 C         6.4876040221       -3.3767551628       -2.9894437833
 C         5.6959339319       -4.0371831617       -1.8334554890
 C         6.4589531841       -4.4544997695       -0.4489751015
 C         5.4267450168       -3.6842653355        0.6303012513
 C         3.9322089588       -4.0601571390        0.9615377615
 O         4.5598253307       -4.4293473307       -2.0183826334
 O         5.8530397160       -2.6856053014        1.1330716057
 C         6.2425942559       -5.9963022426       -0.1079621492
 C         7.8944080113       -3.9582190423       -0.3486427913
 C         2.9907076120       -2.9806370657        1.2633054981
 C         2.5565064479       -1.9183883213        0.1622270548
 C         1.8154483121       -0.6781616083        0.5929045597
 C         0.4042418245       -0.6889559096       -0.2091627614
 C        -0.8634545097       -0.0775045991        0.5653308448
 C         1.6250930297       -0.5595217511        2.0962725622
 C         2.6401864476        0.4896796587       -0.0201042116
 O         2.7156644259       -2.2249653790       -0.9816700060
 O         0.3469820780       -0.9123224960       -1.3816121478
 C        -2.1173220791       -0.3995730648       -0.2921124070
 C        -2.2032178872       -1.9092823067       -0.5088029148
 C        -3.5177768678       -2.5732993398       -1.1275688899
 C        -4.6256242510       -2.3869306634        0.0444671153
 C        -6.1718379374       -2.3427902052       -0.2755265979
 O        -1.2382152780       -2.6037464692       -0.1020241078
 O        -4.3177096678       -2.2838643653        1.1996297292
 C        -3.9431716919       -1.8608909029       -2.4564630519
 C        -3.2316928995       -3.9843632003       -1.3983126916
 C        -6.9904575296       -1.8896923148        1.0036346430
 C        -7.0541564224       -0.3498246516        1.1052746706
 C        -7.6151601376        0.2069585530        2.4745087873
 C        -6.5455756296       -0.0126244891        3.5740502366
 C        -5.4905769288        1.0756021586        3.7353091531
 C        -7.9917338859        1.7152858851        2.4129679268
 C        -8.8720945503       -0.6834376190        2.9214703769
 O        -6.5953443470        0.4204409787        0.3144887889
 O        -6.6243361801       -0.9970478877        4.2779273624
 C        -4.2968496728        0.6217915280        4.6788784221
 C        -3.6202016835        1.8508605751        5.3720654094
 C        -2.4666888914        1.6874371046        6.4911135263
 C        -1.1655391673        1.9497280536        5.6000099472
 C        -0.5152477225        3.4892481246        5.5885680243
 O        -3.9908379058        2.9585998138        5.1248882668
 O        -0.6330144235        1.0368861446        5.0294940677
 C        -2.6579041035        2.6491449510        7.6366775139
 C        -2.3171988077        0.2534246255        6.8689673507
 C         0.3979625244        3.6418737023        4.3778341501
 C        -0.2620657987        3.6978893302        2.9962417799
 C        -0.5925391261        4.9873235178        2.2372661329
 C         0.1336825940        4.8582202685        0.8980258187
 C        -0.4506105886        3.9477653009       -0.1936801635
 C        -2.1415229657        4.8619425996        2.1421704649
 C         0.0160834251        6.2348452701        2.9928351107
 O        -0.5577055880        2.6568934128        2.4367365402
 O         1.1721337089        5.4701947788        0.7809526561
 C         0.4811551256        3.9542237161       -1.4023522463
 C        -0.3102963496        3.7236793221       -2.6578852489
 C         0.4283417540        3.2707373925       -3.9426689431
 C         0.4748274762        1.6668400259       -3.7687352405
 C        -0.6822654751        0.8223171744       -4.0745038028
 O        -1.4972760095        3.6281105283       -2.7534283125
 O         1.5613758965        1.1962137962       -3.4077828189
 C        -0.3502070306        3.7107217445       -5.2029429093
 C         1.8564102555        3.8929319249       -4.0437107330
 H         2.5929944161       -4.4817482041       -6.3039342755
 H         0.9181232816       -3.9864045220       -6.1544549666
 H         1.8772192689       -3.3213602857       -7.3864757097
 H         5.2061404939       -4.1843673091       -4.6673763061
 H         6.4746397097       -3.1431294381       -5.1065020763
 H         4.4695655404       -3.3229933567       -7.1955192420
 H         5.4561835018       -1.8110063053       -7.1732620094
 H         3.9734733177       -1.8738362791       -7.8888767014
 H         4.4991455531        0.2080798508       -5.8972841815
 H         2.9159513348        0.0131673722       -6.6158541929
 H         3.0893976001       -0.0766866280       -4.7825978458
 H         7.3432071104       -4.0778313874       -3.2093734705
 H         6.9911851810       -2.3590787132       -2.6992592335
 H         3.6858632956       -4.6889017296        0.1279859733
 H         3.9489402710       -4.7242205937        1.8109907906
 H         5.2538978657       -6.2286845454        0.1368125765
 H         6.6955669602       -6.2352646886        0.9332678798
 H         6.5254052952       -6.7097515921       -0.8057631569
 H         7.7723399659       -2.9408188448       -0.0487974603
 H         8.3343995643       -4.6279290230        0.4400901297
 H         8.5680572559       -4.0054345967       -1.2887339539
 H         3.2966533200       -2.5114920231        2.1676317497
 H         1.9828062664       -3.4003645958        1.4991659567
 H        -0.7723265518       -0.4418771971        1.5356098887
 H        -0.6993370622        0.9698138888        0.5689275124
 H         1.0826580320       -1.4410079134        2.3946588608
 H         0.9188728490        0.3214508682        2.2488767112
 H         2.5082475079       -0.2956317671        2.6443565436
 H         2.3903899216        0.6673683024       -1.0143097809
 H         2.6650506261        1.4238893654        0.6071013434
 H         3.7317895677        0.2051835720        0.0229144678
 H        -2.9986081899       -0.0312340775        0.2609954961
 H        -2.0598241946        0.0653403186       -1.2864773550
 H        -6.3843012682       -1.6552870512       -1.1047540075
 H        -6.6962185585       -3.2836511724       -0.6814198901
 H        -4.2368562067       -0.7578902784       -2.4577024178
 H        -4.9642656216       -2.1794250515       -2.8789321431
 H        -3.1960960055       -1.9114883252       -3.2534286811
 H        -2.8585676440       -4.5339394126       -0.5271181681
 H        -4.1359405518       -4.6216387163       -1.6470915551
 H        -2.3559615730       -4.0658478976       -2.0395668240
 H        -6.5522883122       -2.3714172778        1.9167512393
 H        -8.0006802134       -2.3035815631        0.8952196009
 H        -5.1529574650        1.4202065000        2.7479115558
 H        -5.8191778725        2.0059290438        4.1259074157
 H        -8.2103850810        2.0537075672        3.3809178280
 H        -8.9220049957        1.8177602005        1.8501004548
 H        -7.2292148510        2.3587519661        1.9536718772
 H        -8.4983773348       -1.6396463466        3.2234072752
 H        -9.3292918443       -0.2245113889        3.8077781927
 H        -9.6721613884       -0.8069810666        2.1619222757
 H        -4.7849428493       -0.1913033528        5.2618481167
 H        -3.4472699170        0.0936488827        4.2180685972
 H        -1.3103529628        4.1610568281        5.4698310538
 H         0.1043419520        3.6339750560        6.4802078062
 H        -2.9960965322        3.5627995059        7.2526938316
 H        -1.7868289402        2.8382531952        8.1891498925
 H        -3.3969503888        2.2621723045        8.4397464865
 H        -2.2409467335       -0.3390364964        5.8915332707
 H        -1.4044890310        0.1138503929        7.4484410857
 H        -3.1205985870       -0.1857317250        7.3904177897
 H         1.0461954705        2.7363539925        4.4577466330
 H         1.0060216127        4.5905444489        4.5020382478
 H        -0.6146985696        2.9014154330        0.1098815410
 H        -1.4263864678        4.3771187431       -0.5720214166
 H        -2.4921969188        3.7849769163        2.1318706052
 H        -2.4360737238        5.4047054473        1.2977885832
 H        -2.7502432866        5.4012054610        2.8002553857
 H        -0.2317948766        7.1755063392        2.4603948068
 H        -0.4652325481        6.2308877886        3.9447435403
 H         1.1473266494        6.2963987807        3.0049920367
 H         0.9818303169        4.9010510788       -1.5533125566
 H         1.2075861037        3.2284678819       -1.2954865262
 H        -0.6307827481        0.6669487289       -5.1433870325
 H        -0.4458677742       -0.1434034900       -3.5603439128
 H        -1.5853806093        1.3632032592       -3.8914068727
 H        -1.2195365310        3.0199433674       -5.4948199595
 H         0.3455867995        3.4322038639       -5.9700241820
 H        -0.5440478145        4.7530690239       -5.3135774149
 H         2.2072312894        3.7160029401       -5.0529624862
 H         1.8342385172        4.8949745721       -3.5783198864
 H         2.5007514922        3.3627303244       -3.3839522758
 Na        2.3758148686       -0.8285057137       -2.9114669557
