155

 C       -12.1312453603       -4.1293486777        2.4176805207
 C       -11.1817336119       -5.1720284461        1.8757257363
 C       -10.2105262952       -5.9406043810        2.8536001341
 C        -9.2053715568       -4.8822662099        3.3857527328
 C        -8.0798468446       -4.5003546244        2.4202310813
 C       -10.9958809199       -6.4785096504        3.9846338859
 C        -9.5025598741       -7.1404395120        2.1314154757
 O       -11.2752082223       -5.4209776990        0.6940897985
 O        -9.1998488609       -4.2748605073        4.4600024180
 C        -7.3887838786       -3.2075623502        2.8025700123
 C        -5.9133530838       -3.3551997256        2.4221702849
 C        -4.8546601420       -2.3027748729        3.0779401477
 C        -4.6430180020       -1.2374471798        2.0473997494
 C        -3.5913207744       -1.4512653764        0.9515182785
 O        -5.5451960234       -4.1060765846        1.5445792961
 O        -5.3682123720       -0.2740348247        1.8415332957
 C        -5.3985751955       -1.5839477966        4.2894661889
 C        -3.5912444797       -3.1631831217        3.4538610719
 C        -3.6289948280       -0.3636104796       -0.0843550648
 C        -2.2850408279        0.2028051863       -0.4996127835
 C        -2.2649643646        1.1585194557       -1.7328361248
 C        -1.5452635411        2.4622282292       -1.3822686211
 C        -2.2282233854        3.7494702621       -1.9452996804
 C        -1.3174865549        0.6679088828       -2.8480604359
 C        -3.5829920579        1.2470637222       -2.4498561693
 O        -1.2785104788       -0.0989396831        0.1282562417
 O        -0.4657651368        2.5391875998       -0.7903830737
 C        -2.7109699731        4.7254623408       -0.8724152973
 C        -3.6996673801        3.9799698761        0.1049527057
 C        -4.5147767179        4.6792782252        1.3246776900
 C        -3.3280520490        4.6714146427        2.4441052610
 C        -3.3669240369        3.4124309467        3.3017438347
 O        -3.6033765494        2.7601738154        0.0797576373
 O        -2.5922386858        5.6049859723        2.5615445665
 C        -4.9188116626        6.1212904228        1.0044458349
 C        -5.6764342867        3.7250392699        1.6479843284
 C        -2.1714964199        3.2054324090        4.3054388833
 C        -1.1648380460        2.2021087242        3.6947080622
 C        -0.1507880830        1.5096683322        4.7206636087
 C         1.1728651988        1.3845073043        3.9122397159
 C         2.5190272324        1.9221716258        4.3879263583
 C        -0.0171709750        2.2956733872        6.0446100233
 C        -0.7678125003        0.0575790038        4.9970872740
 O        -1.1612557694        2.0345851369        2.4877173196
 O         1.1083089143        0.6579996426        2.9057560568
 C         3.6092871424        2.0097974720        3.3687637882
 C         3.2170459431        2.6930772106        2.0547657830
 C         4.3485715467        2.5401204578        0.9719655029
 C         3.8644083715        1.3437703880       -0.0081782903
 C         4.8350877688        0.9048847161       -1.0885536690
 O         2.1536567947        3.2338651230        1.8188979413
 O         2.7957866130        0.7954327453        0.1304723494
 C         4.3608549730        3.8786410013        0.1731156653
 C         5.7622156180        2.1278546221        1.4754729031
 C         4.3549471553       -0.3708779782       -1.9174204793
 C         5.5914485286       -1.1968642593       -2.5116710935
 C         5.7528671884       -1.8042667235       -3.9473641347
 C         6.4248006137       -0.6924388721       -4.8654387617
 C         7.7014050854       -0.0479669176       -4.4706933508
 C         6.5772321114       -3.2047556553       -3.8636163575
 C         4.3217639258       -2.2186991875       -4.5103308071
 O         6.4856119547       -1.3744131108       -1.7087849979
 O         5.8754623274       -0.4236297532       -5.9340099224
 C         8.8828082667       -0.4916708918       -5.3770529163
 C         8.7107894104       -0.0626135189       -6.8321666851
 C         8.7391359532       -1.0801653299       -8.0326528116
 C        10.2652356509       -1.4204950963       -7.9381653712
 C        11.2790336083       -0.6034086899       -8.6310116410
 O         8.5920496764        1.0704097221       -7.0861206527
 O        10.6190357811       -2.3477987744       -7.2187090773
 C         7.7512051658       -2.2485405441       -7.6266133932
 C         8.3748375202       -0.3388732979       -9.3008897336
 H       -11.7968982512       -3.5334151402        3.2733934185
 H       -12.4306311648       -3.4314987325        1.6128192299
 H       -13.0626187721       -4.5913685289        2.7584104981
 H        -7.4272795524       -5.4036374038        2.1660712139
 H        -8.4216213536       -4.4065780402        1.3747722428
 H       -12.0904419606       -6.4261439442        3.7637460538
 H       -10.8629655627       -5.8407751961        4.8443190336
 H       -10.8101749483       -7.4675157877        4.2490421345
 H       -10.3937519537       -7.6337529329        1.6461398168
 H        -8.9337992928       -6.8098619467        1.2427205455
 H        -8.8750724423       -7.7716521787        2.8601737432
 H        -7.8813758224       -2.4516558995        2.1620234587
 H        -7.6708613703       -3.0746480392        3.8766104435
 H        -2.5759249726       -1.4040946094        1.3551246676
 H        -3.7657574757       -2.4353255636        0.6030862381
 H        -4.7651443733       -0.7195438533        4.4600310508
 H        -5.3371685001       -2.0543744866        5.3454190600
 H        -6.3486287584       -1.0602315429        4.2175058158
 H        -4.0307614441       -3.8090584458        4.2700036534
 H        -3.4140532589       -3.8291703731        2.6267023635
 H        -2.8101345208       -2.5956552434        3.8134776831
 H        -4.1932262224        0.5589615962        0.3290917815
 H        -4.1956106658       -0.7242812646       -0.9144795853
 H        -1.3983218731        4.3479650991       -2.4400030797
 H        -2.9369609781        3.3818992197       -2.7722478547
 H        -0.4479477450        0.4215057628       -2.3060891929
 H        -0.8804074667        1.3895581199       -3.4954020344
 H        -1.6770171050       -0.2156992760       -3.3259535788
 H        -3.8305450768        0.2180889873       -2.7532138696
 H        -4.4221713861        1.5245522392       -1.8581468144
 H        -3.5042931502        1.8343189634       -3.3902524531
 H        -1.8624602771        4.9334836369       -0.2273374545
 H        -3.1264365857        5.6391106594       -1.2167468101
 H        -4.3384697663        3.4765099323        3.8751394507
 H        -3.4869078568        2.5262988800        2.6630054623
 H        -4.1022146684        6.8443175898        0.8795815388
 H        -5.6736752841        6.4895541694        1.7256802199
 H        -5.5068652255        6.1777380166        0.0736685765
 H        -6.6462550701        3.9786546510        1.2027061836
 H        -5.6233763981        2.6338426379        1.4448874020
 H        -5.9155253621        3.8426084612        2.7120531438
 H        -2.5206567247        2.8473711101        5.2909881091
 H        -1.8252008623        4.1774379673        4.5574039571
 H         2.4696877023        2.9771656041        4.7515722093
 H         2.9014859080        1.4346230047        5.2871222020
 H         0.3772949593        3.2863917262        5.8812301423
 H         0.8124736778        1.8753582902        6.6201372124
 H        -0.9392212264        2.1894544560        6.6038363360
 H        -0.5225072378       -0.4824330895        5.8826167832
 H        -1.8661606661        0.2215573032        5.2457723391
 H        -0.5396507942       -0.6330430814        4.2218381251
 H         4.5334401483        2.4172633472        3.8157898772
 H         3.8665420868        0.9628550542        2.9921213098
 H         5.2634709589        1.7379861082       -1.7463122481
 H         5.7458714099        0.6201155946       -0.5323328571
 H         4.7073751923        4.6516729041        0.8372752102
 H         3.4205518993        4.2546953702       -0.2402937922
 H         4.8510264340        3.7007523030       -0.8034872546
 H         6.5476836498        2.0679807983        0.6858948974
 H         6.1994427477        2.6287726827        2.3133972332
 H         5.6894451835        1.0248168437        1.8570347381
 H         3.6365664105       -0.1680095231       -2.7676795646
 H         3.7571138032       -1.1714536506       -1.4403335831
 H         7.5231843715        1.0348724998       -4.6115284068
 H         7.9729967780       -0.2273281630       -3.4236191485
 H         7.4798018676       -2.8704756040       -3.2369614280
 H         6.8314210352       -3.6406223128       -4.8108043456
 H         5.9861665015       -3.9216431327       -3.3224841090
 H         3.8659662947       -1.4695544607       -5.1746012103
 H         4.3457361463       -3.1270535485       -5.1420052286
 H         3.6091186009       -2.3848270498       -3.7282943260
 H         9.6369751632        0.1495338067       -5.0331495343
 H         9.1459919288       -1.5223717263       -5.2382282552
 H        10.9309815616        0.4059768854       -8.5546174958
 H        12.2274150090       -0.7266830052       -8.0994709232
 H        11.4427556751       -0.7418562015       -9.6643954828
 H         6.7437684168       -1.9556801170       -7.4147585263
 H         8.1759025220       -2.7123253687       -6.6891071471
 H         7.6761227395       -2.9785738610       -8.3923732724
 H         8.3726208655       -0.9333183234      -10.2397033300
 H         7.3766427277        0.0781808658       -9.1340671626
 H         9.0189721793        0.4846701029       -9.4517718299
 Na        0.5592947588        1.2910949142        0.8127911110
