155

 C         1.9790856046       -3.4231934445       -6.4632360935
 C         2.4693671907       -2.3431025299       -5.4776666858
 C         3.9105180816       -1.6355128180       -5.6157635401
 C         4.7599964922       -2.0612614849       -4.3329108251
 C         5.8451270379       -3.2039239877       -4.3958936510
 C         4.6908511352       -2.1340169873       -6.8351799444
 C         3.7428097078       -0.0929732107       -5.8454958391
 O         1.7770276523       -2.1520010598       -4.4662671186
 O         4.6110615052       -1.4188643304       -3.3314513074
 C         6.6010047168       -3.4388580606       -3.0604733456
 C         5.7232400788       -4.1596064391       -2.0655682617
 C         6.2950885286       -4.3227261518       -0.5938876099
 C         5.3440790950       -3.6291370823        0.5196817552
 C         3.8782486794       -4.0662178415        0.4813521130
 O         4.8390682869       -4.8599699765       -2.4771634510
 O         5.6844302383       -2.8374570994        1.3993229032
 C         6.2141522930       -5.8676319779       -0.3284494897
 C         7.7108026378       -3.7200347047       -0.3132792967
 C         2.9830329351       -3.0670246083        1.2292941221
 C         2.5688279843       -2.0184966144        0.2671314857
 C         1.9590551708       -0.5950055589        0.6998922521
 C         0.5864778478       -0.4606486194       -0.1115835071
 C        -0.7976703792       -0.1004593777        0.5365681205
 C         1.8349538217       -0.4177697478        2.2413070134
 C         2.7019829236        0.6603657302        0.2156513213
 O         2.7968675761       -2.2382817943       -0.9194467346
 O         0.5691280064       -0.7990146737       -1.2908717726
 C        -1.9381275099       -0.3204365198       -0.3658564136
 C        -2.1552074648       -1.9407084660       -0.5706751966
 C        -3.5496279008       -2.5388066351       -1.1467503216
 C        -4.5517784952       -2.4473003647        0.1496196908
 C        -6.0191364300       -2.3557907917       -0.1287690484
 O        -1.4362513446       -2.6986290060       -0.0596478652
 O        -4.1090222077       -2.5481346391        1.2789091935
 C        -4.0705572680       -1.7532571625       -2.3656447673
 C        -3.4300788261       -4.0317671876       -1.4096199699
 C        -6.9446882534       -2.0564861621        1.0341032686
 C        -7.0760516471       -0.4781973554        1.2020385531
 C        -7.7404340665        0.0770301607        2.5236468763
 C        -6.5583304808       -0.2060660813        3.6274164102
 C        -5.5273091012        0.9489730144        3.7222277640
 C        -8.0645587176        1.5910430318        2.2673092111
 C        -9.0208563298       -0.5695475773        2.7737893819
 O        -6.7280202469        0.2631740452        0.2984253896
 O        -6.5586274957       -1.1421861645        4.3696209897
 C        -4.4690197356        0.7394742347        4.8011931504
 C        -3.6505769218        1.9398538166        5.2106139016
 C        -2.5685694663        1.6995935665        6.3948674031
 C        -1.1533799760        1.9195166951        5.6200790928
 C        -0.7591926633        3.4952445869        5.4628748351
 O        -3.8024539499        3.0488638423        4.7073344717
 O        -0.5543376896        1.0166108835        5.0806377405
 C        -2.7089938032        2.7268498150        7.5030524487
 C        -2.5997266806        0.2629937347        6.9954734719
 C         0.4264468395        3.6144299098        4.3954510812
 C        -0.2229766932        3.6100305790        3.0087101385
 C        -0.6287456929        4.9328017258        2.2797988913
 C         0.1570868989        4.9192377907        0.9026291756
 C        -0.5028203987        4.1171005507       -0.2026388918
 C        -2.1872709468        4.9733124134        2.0427125225
 C        -0.4878905932        6.2160282999        3.1036115568
 O        -0.4036253369        2.5379185026        2.4722223684
 O         1.0767078275        5.7392979659        0.7567638274
 C         0.4590727781        4.0542610916       -1.4605113433
 C        -0.3160022358        3.6457696166       -2.7156181779
 C         0.5163185573        3.2389180187       -3.9602394118
 C         0.5367267718        1.6142914781       -3.9111331616
 C        -0.8037537675        0.9118915207       -4.0782799558
 O        -1.5503496108        3.7169490146       -2.7376954678
 O         1.5381191885        1.0696888929       -3.5145267113
 C        -0.2185099293        3.6987339940       -5.2718623206
 C         1.9778966792        3.6501678911       -4.0119902941
 H         1.4564591120       -4.2670853008       -6.0164306909
 H         1.2485288966       -2.9884408348       -7.0952684510
 H         2.6279342515       -3.8527486969       -7.2921445807
 H         5.1640124619       -4.0391514196       -4.6218689439
 H         6.5512691625       -3.1622574525       -5.2158397229
 H         4.7078957741       -3.2769713688       -6.7194118143
 H         5.7174484457       -1.7599432479       -6.8332464228
 H         4.3350171686       -1.9592899953       -7.8388556738
 H         4.6423025279        0.3456288286       -6.2589114841
 H         2.9879417886        0.0771211767       -6.5925622319
 H         3.4488916523        0.4021611951       -4.9477904816
 H         7.4147538747       -4.0998457103       -3.2359320477
 H         6.9852915198       -2.5430374508       -2.7197361738
 H         3.6484574166       -4.3463187123       -0.5754109618
 H         3.8897205551       -5.0609831977        0.9925023759
 H         5.2331688540       -6.3849842106       -0.6239337254
 H         6.4231598725       -6.0309029078        0.7546969446
 H         7.0635501884       -6.3919984620       -0.8797877644
 H         7.8847921133       -2.7235787559       -0.8252955955
 H         7.8120410796       -3.7369412326        0.7564883497
 H         8.4020778170       -4.3425428726       -0.7789829886
 H         3.4323001944       -2.6244226866        2.1660769721
 H         2.0149461980       -3.4986663024        1.4554887933
 H        -0.7837661913       -0.7144031023        1.5027605094
 H        -0.5614640706        1.0006850911        0.7773855618
 H         1.1405995086       -1.0961058971        2.7126827814
 H         1.6224233425        0.5460030379        2.5124613069
 H         2.8734173437       -0.4900797110        2.5708057431
 H         2.9575510089        0.6787890398       -0.8820000554
 H         2.0051000383        1.4113170439        0.3998496431
 H         3.5107844956        0.9659692640        0.7644247608
 H        -2.8510916794        0.0752949108        0.0767684102
 H        -1.6527642492        0.0727187800       -1.3291883471
 H        -6.3482925069       -1.6621879416       -0.9141951024
 H        -6.2253424819       -3.2944459405       -0.5815613036
 H        -4.1301598446       -0.7026908035       -2.2867013824
 H        -5.0470227688       -1.9743857398       -2.6445423814
 H        -3.4265656170       -1.8622800356       -3.2482373187
 H        -3.2587438807       -4.5620842106       -0.4924809546
 H        -4.3520306992       -4.4645533508       -1.6707803779
 H        -2.6448403590       -4.4116762207       -2.0906319845
 H        -6.4817585414       -2.4718623151        1.9133444750
 H        -7.9077441608       -2.5583756628        0.8909252058
 H        -4.9637562074        1.0380809356        2.7649142561
 H        -6.0289511123        1.9695659563        3.8216265817
 H        -8.2863291769        2.1678729627        3.2583757433
 H        -8.8668451581        1.6277282653        1.4572704743
 H        -7.2573594650        2.1159885545        1.7675727984
 H        -8.9555431993       -1.6842618382        2.7113131453
 H        -9.4037970491       -0.2840135996        3.7312444565
 H        -9.7206632969       -0.2475706035        2.0264316484
 H        -5.0681144506        0.3433517787        5.6397378236
 H        -3.8902312040       -0.1552686170        4.4807810591
 H        -1.6853345539        4.0397102638        5.0802508087
 H        -0.4250716879        3.7127131874        6.4820430052
 H        -2.9372058182        3.7710425613        7.1555546579
 H        -1.8041941502        2.7282186093        8.1612479559
 H        -3.4978591091        2.5349562097        8.1508596215
 H        -2.3193484900       -0.5099122552        6.3687000662
 H        -1.8818672109        0.2558790238        7.8328235057
 H        -3.6237459086        0.0225621012        7.3927061361
 H         0.9129839551        2.6560923274        4.5145594723
 H         1.0843061718        4.4460645084        4.4418677597
 H        -0.8749545704        3.1456290044        0.2125531744
 H        -1.3471923506        4.6758709747       -0.5902508853
 H        -2.5767245880        4.0646162585        1.6424216178
 H        -2.6532488291        5.9444366364        1.6354612883
 H        -2.6985704648        4.9969924864        3.0669192397
 H        -0.9172312949        7.0052635648        2.5136919839
 H        -0.9958112847        6.0963084728        4.0949816015
 H         0.5079010906        6.5320415933        3.2161179743
 H         0.8090971419        5.0869279229       -1.6985931943
 H         1.3146711989        3.3250814610       -1.2705773783
 H        -1.2001571031        0.9352548909       -5.0759913346
 H        -0.5927533189       -0.0826470453       -3.7112597392
 H        -1.4699696757        1.4943232190       -3.4469651742
 H        -1.2296526327        3.6656834030       -5.0558787975
 H        -0.1242193163        3.1032665868       -6.1816573575
 H         0.1877763387        4.7174658863       -5.4838192636
 H         2.2164186247        3.6656213139       -5.0584030958
 H         2.2362776724        4.5217044213       -3.4322207635
 H         2.5649599065        2.8918217359       -3.4425291375
 Na        2.3501105630       -0.8442286310       -2.5931414684
