155

 C         4.1983537104       -2.3543768664       -5.9378161140
 C         4.1236550730       -1.0273395651       -5.0952951356
 C         5.4192681748       -0.2889786813       -4.7767080660
 C         5.8744757233       -0.9355930283       -3.3831414774
 C         7.0177148322       -2.0066241105       -3.3581071527
 C         6.4148612691       -0.3856517053       -5.9678832114
 C         5.0667375791        1.2003328947       -4.4806098565
 O         3.0962518522       -0.7802865099       -4.4497581648
 O         5.3113170722       -0.5362683842       -2.3633366561
 C         7.0401449115       -3.0209139857       -2.2774291196
 C         5.7051091250       -3.8093083004       -2.2061477754
 C         5.6061149287       -4.8471298879       -1.0256321311
 C         4.7667507554       -4.2747680883        0.2376699311
 C         3.1252226358       -4.5401595227        0.3969060856
 O         4.7851609040       -3.4205277684       -2.8389202150
 O         5.4044461510       -4.0509671312        1.2270190118
 C         4.7409708100       -6.0409655278       -1.4234698233
 C         7.0269283787       -5.3489216701       -0.5369614270
 C         2.5133387076       -3.3717798995        1.1358933209
 C         2.6612590633       -2.0302440637        0.4090005304
 C         2.0245697615       -0.6957352951        1.0229845764
 C         0.9484549085       -0.2116527528        0.1488901146
 C        -0.4039604577        0.2107637775        0.7664711680
 C         1.5968363651       -1.0282513974        2.4661094237
 C         3.1731851277        0.3335672421        1.0315946361
 O         2.9615055452       -2.1241762010       -0.7766643237
 O         1.1174849569        0.0125939608       -1.0291186927
 C        -1.7197800973       -0.5081252635        0.1919701949
 C        -1.5529346736       -1.9862008811        0.1351312980
 C        -2.8767959698       -2.8768393543       -0.1782450210
 C        -3.7270904854       -3.0061502633        1.0992538590
 C        -4.7978224202       -4.1830916780        1.2109336533
 O        -0.4567092708       -2.4946913621        0.2041206662
 O        -3.5579872258       -2.3803098935        2.0989499240
 C        -3.8769485506       -2.1591760914       -1.2222251849
 C        -2.4728387139       -4.2753884107       -0.6638583423
 C        -6.0021073360       -3.7794507495        2.0346392273
 C        -6.9364153909       -2.8650853182        1.1954248884
 C        -7.9899028615       -1.9665883410        2.0630720286
 C        -7.3674453952       -1.5597675909        3.3686960357
 C        -6.5668394173       -0.2763414982        3.3852177170
 C        -8.3455725188       -0.7806892210        1.1946422350
 C        -9.2147787722       -2.8645180935        2.3835256784
 O        -6.8897259975       -2.9009709489        0.0098934691
 O        -7.4178519197       -2.2332097948        4.3690959690
 C        -5.7324540898       -0.1515874612        4.6546157171
 C        -4.9703388388        1.1787498049        4.7183860548
 C        -3.5719266296        1.1827652146        5.4139079602
 C        -2.4496909715        1.7810955844        4.3391955185
 C        -2.5602369241        3.2121056907        4.0862742925
 O        -5.4813803718        2.2120680231        4.4580916371
 O        -1.6925591823        1.0192007917        3.7402358627
 C        -3.7329977708        2.1115736217        6.6679735716
 C        -2.9473113422       -0.1970413614        5.8063578909
 C        -1.5107661869        3.7297007166        3.1536705489
 C        -1.9599335180        4.0317616391        1.6469095665
 C        -2.5295225297        5.3624926958        1.3508339205
 C        -1.4510059525        6.0624203952        0.2665497016
 C        -1.3116625254        5.6043574637       -1.1950571593
 C        -3.9633418612        5.1655731879        0.6628764895
 C        -2.7744437858        6.3571054280        2.4859140368
 O        -1.8043233730        3.2800647408        0.6900746077
 O        -0.8043221010        6.9940535370        0.6791874146
 C         0.2530891407        5.3235956865       -1.5442668455
 C         0.4004922439        4.5782358645       -2.8129296653
 C         1.9119759999        4.2934506844       -3.2350771849
 C         2.0241329556        2.7388082026       -3.3005665820
 C         1.4864033271        2.0310018058       -4.5799067482
 O        -0.4436370901        4.1727054134       -3.5789627414
 O         2.5268583516        2.1702271753       -2.3551575036
 C         2.2265445948        4.9909455085       -4.6706228182
 C         2.9849034726        4.7595139816       -2.2085437625
 H         4.9499484385       -2.9649822914       -5.4964815748
 H         3.2437343352       -2.9422360296       -5.8255675208
 H         4.2078607336       -2.2481728255       -7.0238250816
 H         7.1503227411       -2.4814871455       -4.3712240993
 H         8.0544392985       -1.5382979715       -3.3289101554
 H         6.7196911954       -1.4391354082       -6.2559543135
 H         7.2567800796        0.2538446848       -5.8017544543
 H         5.9792652533       -0.1563376413       -6.9782361502
 H         5.8667095409        1.7102748695       -3.9497005330
 H         4.7658149493        1.7631599308       -5.3320285070
 H         4.1670471819        1.2222493538       -3.7682961447
 H         7.8060135231       -3.7258077852       -2.4593526439
 H         7.2232535305       -2.6411792731       -1.3363435321
 H         2.6273714851       -4.6996652652       -0.5695148395
 H         2.9844009986       -5.4866847359        0.8288089829
 H         3.8977632607       -5.8330184161       -2.1527053684
 H         4.4740230354       -6.6870585454       -0.5794908384
 H         5.3841323613       -6.7946785514       -1.9170971915
 H         7.6090014867       -4.6550479184        0.0559552619
 H         6.8016767995       -6.2075063983        0.1002322797
 H         7.5112018104       -5.8785251666       -1.2919980310
 H         3.0141401145       -3.4197248064        2.0986787708
 H         1.4478284839       -3.5410226468        1.3442063564
 H        -0.4477511397        0.1614525494        1.8692925263
 H        -0.6189862493        1.3317962843        0.6403195366
 H         0.7364084870       -1.7754721615        2.4583739916
 H         1.1986007399       -0.2743560522        3.0990878092
 H         2.5488309844       -1.4293106103        2.9502059202
 H         3.8984068154       -0.2744949986        1.3943278821
 H         3.4621814784        0.7134305638        0.0481231542
 H         2.9938031817        1.1936752375        1.6843056109
 H        -2.5894374814       -0.3475287734        0.8255876474
 H        -2.0245186113       -0.2188142415       -0.8424286122
 H        -4.8993989354       -4.5621074104        0.1763184692
 H        -4.3086996166       -4.9474375376        1.8354840707
 H        -4.2211594439       -1.3171057280       -0.6761043471
 H        -4.6360089712       -2.9107084587       -1.3366626607
 H        -3.2231617797       -2.1058652432       -2.0949014559
 H        -1.9222214104       -4.7640795049        0.0961033423
 H        -3.1808515867       -4.9345406388       -1.0840775642
 H        -1.7632485474       -4.0755464713       -1.5442963177
 H        -5.7255279604       -3.1516197717        2.9042092418
 H        -6.6134890830       -4.5518417234        2.4941261003
 H        -5.9751569167       -0.2256610237        2.5056682471
 H        -7.2038012203        0.6490284648        3.2585577015
 H        -9.0553364920        0.0290031977        1.5354705446
 H        -8.8634058999       -1.1298647311        0.3680889062
 H        -7.4404312084       -0.4663691558        0.7280076143
 H        -8.9432316767       -3.8047318070        2.7789022487
 H        -9.8432736916       -2.3686472239        3.1758661563
 H        -9.8320235803       -2.9936025281        1.5132526816
 H        -6.2964562041       -0.2141385429        5.6294557633
 H        -5.0091536053       -0.9136725235        4.7994677535
 H        -3.5808726122        3.3585927363        3.7378497517
 H        -2.4458364489        3.7309461707        5.0190693394
 H        -4.0953081241        3.0975748954        6.4423874852
 H        -2.8196605480        2.1272218702        7.2738196383
 H        -4.5132419366        1.7535881579        7.3028698907
 H        -2.8175647477       -0.8984716829        5.0350384029
 H        -1.9833933204       -0.0392056275        6.2530504520
 H        -3.5453139875       -0.7605786945        6.5997752371
 H        -0.6161210224        3.1175330747        3.0206966417
 H        -1.0185150039        4.6513463997        3.5480697789
 H        -1.9146961959        4.7381143878       -1.4825982388
 H        -1.5513753369        6.4829630976       -1.7771313051
 H        -4.0063333481        4.4289260166       -0.1727176997
 H        -4.2877058212        6.1258140566        0.2467202249
 H        -4.7496756808        4.8948501097        1.3659918679
 H        -3.3482129867        7.2313099354        2.1908861824
 H        -3.3300722807        5.7962871818        3.2262228336
 H        -1.9160971008        6.6725885395        3.0208004767
 H         0.6669233450        6.3071725598       -1.6933987021
 H         0.6916781075        4.7730412478       -0.6355698241
 H         2.2882972912        2.1897221990       -5.3445823088
 H         1.2132571918        0.9774280733       -4.4192551594
 H         0.7260049814        2.5733056925       -5.0124027652
 H         1.4472503793        5.0768059697       -5.3674432439
 H         3.0513027310        4.5488804491       -5.2986163216
 H         2.5812462578        5.9784926163       -4.4159721631
 H         3.0496398668        5.8564486643       -2.0575478515
 H         2.8720629315        4.1925626643       -1.2882347979
 H         4.0153984171        4.3727929222       -2.5088047202
 Na        2.8619427620       -0.3185275976       -2.2735109179
