155

 C         4.1059016745       -1.8897470364       -6.1248789542
 C         4.2204358942       -1.0317674221       -4.8496486845
 C         5.5873382006       -0.4008948341       -4.4234013196
 C         6.0367408220       -1.1685192502       -3.0920947149
 C         7.2400808915       -2.0873134161       -2.8748834975
 C         6.5973222538       -0.7653168614       -5.5774425769
 C         5.4488503535        1.1470808419       -4.3209595852
 O         3.2115754877       -0.8969314182       -4.1359446007
 O         5.4200330216       -0.9475786472       -2.0762293176
 C         6.9765394610       -3.3430763125       -1.9982080550
 C         5.8509392672       -4.2239336398       -2.2665759559
 C         5.4764893555       -5.2526764802       -1.0813644542
 C         4.8115427953       -4.1123465535       -0.0600967265
 C         3.2260926070       -4.1859489842        0.1273147489
 O         4.9877736927       -4.1722798233       -3.1695051092
 O         5.4979880597       -3.3470796656        0.6491644332
 C         4.4725494025       -6.3519674249       -1.5686105263
 C         6.7089125539       -6.0032646104       -0.3965475098
 C         2.7333902309       -3.0458739391        1.0358819924
 C         2.6753520853       -1.6942296846        0.2333957162
 C         1.8443445869       -0.4304228297        0.9671152086
 C         0.7095626536       -0.0940186802        0.0322519386
 C        -0.6887206753        0.1364692550        0.4889473145
 C         1.4005227622       -0.9611626890        2.3492547039
 C         2.7282651474        0.8691937234        1.1985199554
 O         3.1653327076       -1.7178617876       -0.8469417874
 O         1.0207493697        0.2071062728       -1.1351168707
 C        -1.7932033179       -0.7255597479       -0.1639852544
 C        -1.5584804681       -2.2733638149       -0.0964064944
 C        -2.8149660172       -3.1554646194       -0.3449132054
 C        -3.5040709858       -3.5241971738        0.9817032888
 C        -4.7517687411       -4.4546136743        0.9740215374
 O        -0.4991298743       -2.6564377957        0.2620972097
 O        -3.0541881896       -3.0547207498        2.0041487584
 C        -3.8706050344       -2.4607713721       -1.4374231727
 C        -2.3226333203       -4.3883529276       -0.9806723007
 C        -5.7957270520       -3.9301220843        1.9431051734
 C        -6.6710117145       -2.8835640835        1.1922991154
 C        -7.9325918705       -2.2854767736        1.9737448913
 C        -7.4749488428       -1.6307857507        3.3861632688
 C        -6.4347853758       -0.4694971833        3.2487968684
 C        -8.5918239873       -1.1621210855        1.1525158973
 C        -8.9988433358       -3.4258612090        2.1873241328
 O        -6.4066616769       -2.6019585172        0.0627571835
 O        -7.8801684221       -2.0166982965        4.4533838865
 C        -5.4037554992       -0.5030710000        4.3504197827
 C        -4.8435241326        1.0246528727        4.6454425476
 C        -3.6182851758        1.2823288592        5.5711992594
 C        -2.3407684278        2.0323995095        4.6589583299
 C        -2.6021503329        3.5402084274        4.2273030582
 O        -5.4525198259        1.9579826686        4.2124333626
 O        -1.3698350626        1.4152219784        4.3629299715
 C        -4.2377159318        2.3233416041        6.6303504238
 C        -2.9315797629       -0.0240718525        6.3106167236
 C        -1.6636419958        3.9070455672        3.0466756023
 C        -2.4898748158        4.0089017778        1.7074956810
 C        -2.9375361600        5.3414666600        1.1623186252
 C        -1.7393652221        5.8065992794        0.2059018500
 C        -1.2908307571        5.1037354064       -1.0430581435
 C        -4.1468077805        5.2269624837        0.2709309005
 C        -3.1238374669        6.5041369578        2.2435567611
 O        -2.5893301571        2.9513234988        1.0610318916
 O        -1.1858302713        6.8154906576        0.6450801929
 C         0.0390125635        5.6697965133       -1.5811359127
 C         0.4526793129        4.9579827358       -2.8568540553
 C         2.0195994774        4.7220321169       -3.1806608985
 C         2.1638821356        3.1477193592       -3.1839375252
 C         1.4919623008        2.1708220970       -4.1739788654
 O        -0.3119944215        4.3907968418       -3.5994638571
 O         2.9443779376        2.7010992104       -2.3193259917
 C         2.3733102734        5.4495269953       -4.5068346478
 C         2.9756069628        5.2656319791       -2.0995908480
 H         4.7240320497       -2.7750421811       -5.9875573258
 H         3.0563815277       -2.0384523985       -6.3018409947
 H         4.4946508450       -1.4263973280       -7.0867544841
 H         7.7239263320       -2.3346812335       -3.7508601267
 H         7.9084656905       -1.6021162092       -2.2700408822
 H         6.6905041117       -1.8335437408       -5.6114829123
 H         7.6595811358       -0.5401685805       -5.3468264800
 H         6.3855809132       -0.2224385290       -6.5173186177
 H         6.3180593924        1.7165067731       -4.6723980274
 H         4.5663490524        1.5160219687       -4.8963522687
 H         5.3978704180        1.4149140424       -3.2623961717
 H         7.8993355002       -3.9371177461       -2.0765319981
 H         6.9614827891       -3.1247688982       -0.8832831086
 H         2.6978634122       -4.1547570111       -0.7766391466
 H         2.9808119584       -5.2454451931        0.4231719367
 H         3.8492939780       -5.9100473818       -2.3959508008
 H         3.6570609447       -6.6477700217       -0.7591610480
 H         5.0130617881       -7.2023237614       -1.9403817966
 H         7.2696011787       -5.4003504694        0.3531456529
 H         6.2490624888       -6.8042057253        0.1917458869
 H         7.4435817836       -6.3545931990       -1.1071780553
 H         3.4268115565       -3.0922460986        1.8786201948
 H         1.8107302748       -3.3363464464        1.5487515434
 H        -0.7070331589        0.0756252878        1.5395477784
 H        -0.9335390165        1.0355708167        0.0602284008
 H         0.7197864398       -1.7998076718        2.1997326309
 H         1.0927480868       -0.2231903183        3.1633148905
 H         2.2698954524       -1.4377869809        2.7840965419
 H         3.5162151422        0.5251287880        1.9209640140
 H         3.2186487379        1.1717204355        0.2695947901
 H         2.2442467756        1.6845234027        1.6287185071
 H        -2.7266873429       -0.5458508118        0.3627505536
 H        -2.0038346077       -0.4682781553       -1.1502608032
 H        -5.1017978770       -4.7027140143       -0.0610402146
 H        -4.3171157301       -5.3644536680        1.4445001846
 H        -4.4263524715       -1.6509594740       -0.8755539301
 H        -4.4241179827       -3.3934929797       -1.8541132441
 H        -3.1169829383       -1.8945679560       -2.0081566080
 H        -1.5196822237       -4.8448508758       -0.3389768928
 H        -3.1257154954       -5.1566717053       -1.0763850512
 H        -1.8547636967       -4.1015401306       -1.8999810156
 H        -5.2049984461       -3.3397815547        2.6421025431
 H        -6.5096217842       -4.5930686245        2.4749723817
 H        -6.0076239503       -0.5706184401        2.2037070554
 H        -6.9746013197        0.4338648030        3.4262598005
 H        -9.3635761036       -0.6717924101        1.7834752895
 H        -8.9977806617       -1.4910422851        0.1945964214
 H        -7.9304985873       -0.1918060048        1.1019601560
 H        -8.5227373051       -4.1633953163        2.8170987817
 H        -9.8806562839       -3.0366238052        2.6559907122
 H        -9.2429074405       -3.9364920143        1.2312925490
 H        -5.9065302518       -0.9327509888        5.1931642396
 H        -4.5229539384       -1.1353271771        4.1339516926
 H        -3.6293819786        3.5203686253        3.9199141907
 H        -2.4472823385        4.2206039613        5.0586159395
 H        -4.6963721272        3.1898838203        6.0504009443
 H        -3.5202993997        2.7391202866        7.3242532552
 H        -4.8814191723        1.7670129895        7.2413061511
 H        -2.5308703623       -0.8658643187        5.7095791730
 H        -2.1249816140        0.2190582191        6.9871893555
 H        -3.6472392494       -0.4452803645        6.9593395792
 H        -0.8394042483        3.1536850094        2.8561616587
 H        -1.0908055040        4.8289121394        3.1763019130
 H        -1.1773559652        4.0250980748       -0.7410365122
 H        -1.9989199792        5.1699052345       -1.8495024365
 H        -4.1337017752        4.1941123834       -0.2386046439
 H        -4.1860219814        6.0290259493       -0.5276971426
 H        -5.0526487749        5.2789994921        0.9110036920
 H        -3.4270002011        7.4713753608        1.8940901503
 H        -3.9149965698        6.1542642589        2.8481601526
 H        -2.2191100500        6.5952957374        2.8832351131
 H        -0.0099056253        6.7262004750       -1.7667259997
 H         0.7439901858        5.5069390646       -0.7191005914
 H         1.2464693395        2.6747962825       -5.0807959800
 H         2.0639059352        1.2600876631       -4.3990183488
 H         0.5224725771        1.9161906777       -3.7150071211
 H         1.7303967419        5.3166750555       -5.3304364985
 H         3.3770570839        5.1913786752       -4.8554039635
 H         2.3689785783        6.5259022341       -4.4554943300
 H         2.7269288941        6.3672507572       -1.9309481540
 H         2.8343753446        4.9729533790       -1.0259687154
 H         3.9802715100        5.3250098841       -2.4049074742
 Na        3.0622122830        0.3061598702       -2.0583774934
