155

 C         3.8415683990       -1.9607786457       -5.5716278913
 C         4.2323076276       -0.8062687312       -4.5976694559
 C         5.7940588973       -0.4856787941       -4.3510109063
 C         6.1000269091       -0.7859151035       -2.8116841310
 C         7.2632781702       -1.7550092795       -2.3654662287
 C         6.6882418059       -1.3335419542       -5.3084148550
 C         6.0625248005        1.0762393646       -4.5425265987
 O         3.3404417596       -0.0558005213       -4.2229004410
 O         5.3989376878       -0.2162846043       -2.0660198447
 C         6.6601747009       -2.8172812460       -1.4587030945
 C         5.8251902408       -3.9098309486       -2.0040057375
 C         5.1434214270       -4.9903651559       -1.0763566428
 C         4.2657155114       -4.1971816042       -0.0031934737
 C         2.7764279202       -4.1858399643        0.3156638968
 O         5.6509158612       -4.0563243605       -3.1871652447
 O         4.8963613689       -3.5408556746        0.7640055867
 C         4.2155586455       -5.9594569130       -1.8180309278
 C         6.0618907576       -5.9547010610       -0.2367952248
 C         2.2233296314       -3.0763395644        1.1858583470
 C         2.2009654180       -1.7430843535        0.5090155063
 C         1.5501095612       -0.4959302547        1.1281577449
 C         0.6083117355        0.0815517528        0.0948528928
 C        -0.8893247144        0.1652151926        0.3245956276
 C         0.8113856878       -0.9231993043        2.4976361139
 C         2.4664417727        0.6530871596        1.4519481957
 O         2.8762683509       -1.6601349083       -0.4983091934
 O         1.0360495501        0.4562412741       -1.0445085667
 C        -1.8263930523       -0.6499733983       -0.6195334830
 C        -1.2193208022       -2.0638375645       -0.7079307745
 C        -2.2111490178       -3.3021022870       -0.9085011283
 C        -3.2094374654       -3.4260595697        0.3237522395
 C        -4.2070101888       -4.6561018688        0.4080546812
 O        -0.0044123387       -2.3299405604       -0.5821398286
 O        -3.3123717786       -2.4562114941        1.0921136660
 C        -2.9107429489       -3.1207219347       -2.3205115696
 C        -1.3053359040       -4.6301917254       -0.7964616663
 C        -5.3702694410       -4.4007443732        1.3988161920
 C        -6.3292629218       -3.2644652803        0.9285640849
 C        -7.4245782759       -2.7621778292        1.9659059930
 C        -6.6339019146       -2.1379689485        3.2269605893
 C        -6.3721437998       -0.6313517776        3.2330223434
 C        -8.2720545978       -1.6838336722        1.2282048074
 C        -8.3164118815       -3.9234166539        2.6689961346
 O        -6.2810157720       -2.7850585347       -0.2061933394
 O        -6.2114045389       -2.8483988515        4.1202240335
 C        -5.1731132755       -0.2696396547        4.0633742183
 C        -5.0706050575        1.2359900664        4.4306736722
 C        -3.8738902896        1.6749098413        5.4270838124
 C        -2.7820625476        2.4311421768        4.5733068694
 C        -2.9399479332        3.8429426807        4.3122642623
 O        -5.8693625567        2.0739266935        3.9611613979
 O        -1.8089667727        1.7698456149        4.1887808926
 C        -4.5505520361        2.6582900591        6.4411024154
 C        -3.3076494757        0.5105718175        6.2056510530
 C        -1.9032075934        4.3529458097        3.1780971018
 C        -2.4990877123        3.8288224958        1.9157758708
 C        -3.2531132251        4.8726755059        0.9576130982
 C        -2.0745104521        5.5849712059        0.2458762234
 C        -1.5024507998        5.0279769742       -1.0966374411
 C        -4.2455783240        4.0720759528        0.0881145454
 C        -3.9984538638        5.8625257251        1.7921748705
 O        -2.4563668855        2.6496111124        1.6178837012
 O        -1.4836163239        6.4237062165        0.8636777510
 C         0.0202314591        5.4130440901       -1.1904533516
 C         0.5418576943        5.1996960137       -2.6019365012
 C         2.0580794202        4.7240746829       -2.6547136549
 C         2.1162953123        3.2060437458       -2.6672111611
 C         1.2633175902        2.5198780054       -3.7457183244
 O        -0.1427946537        5.2880153029       -3.6055114343
 O         2.8508605501        2.5164076349       -2.0101285088
 C         2.5654660137        5.1457989393       -4.0979470149
 C         2.9745918963        5.4223627348       -1.6034078136
 H         4.1228443589       -2.9381069687       -5.2071157988
 H         2.7281971636       -2.0482515373       -5.6160546984
 H         4.2369369858       -1.6705253725       -6.5327323556
 H         7.8708792806       -2.1058569669       -3.2804203398
 H         7.9358528545       -1.1561569497       -1.6257449219
 H         6.2602320760       -2.3280072128       -5.4758352656
 H         7.6389371359       -1.4616726927       -4.9324685118
 H         6.8175707633       -0.8707856179       -6.2804070624
 H         6.5579331414        1.5051684602       -3.6180031035
 H         6.6350687145        1.3042382217       -5.4394268507
 H         5.0247317958        1.5179984581       -4.5791429781
 H         7.5729581224       -3.3230830866       -1.1591623630
 H         6.2734397853       -2.3285321874       -0.5355567508
 H         2.1570284233       -4.1045186436       -0.5645274289
 H         2.6568752835       -5.1050726616        0.9636037206
 H         3.5633750047       -5.3665841369       -2.4036701938
 H         3.8362553757       -6.6222372993       -1.1656951689
 H         4.8985471855       -6.5238238565       -2.4781486774
 H         6.6312605083       -5.4273361843        0.5033042039
 H         5.4918905016       -6.6181623321        0.4610293351
 H         6.4530466531       -6.6622132581       -0.9693848981
 H         2.9690051490       -2.9798931406        2.0028385855
 H         1.2501518924       -3.3883820565        1.6233311942
 H        -1.2823503997        0.0001958460        1.3236040355
 H        -1.2321602887        1.2195705750        0.2688677667
 H        -0.1446102636       -1.4486338162        2.4518579405
 H         0.5272154127        0.0008579402        2.8562444773
 H         1.4618896910       -1.3175709491        3.2566949359
 H         3.0254829981        0.2691340984        2.2849688763
 H         3.1970338626        1.0172523897        0.7005929903
 H         1.8959531060        1.6099674032        1.7644372952
 H        -2.8379404178       -0.6801483659       -0.1225958255
 H        -1.9295145715       -0.0971054430       -1.5911595523
 H        -4.7036086166       -4.8049738659       -0.5789911460
 H        -3.7952872844       -5.6290827198        0.5118654329
 H        -3.7004608416       -2.3938895974       -2.2837416406
 H        -3.5368043783       -3.9793431206       -2.4686291567
 H        -2.1628850743       -2.8883542888       -3.0429093402
 H        -0.8904721781       -4.6163753102        0.1981582633
 H        -1.9453010946       -5.5236634121       -0.8493386484
 H        -0.5914597751       -4.7088394819       -1.7034695130
 H        -4.8396924198       -3.9733420035        2.2330153734
 H        -5.7965854217       -5.3174442221        1.8575618421
 H        -6.4799285490       -0.2663362328        2.2077845278
 H        -7.2925622783       -0.2685607683        3.6638444083
 H        -8.9751357569       -1.2108860512        1.8810925119
 H        -8.9011270866       -2.0671373077        0.4196889870
 H        -7.5284460012       -1.0882665484        0.8595382198
 H        -7.8802958588       -4.0377425270        3.6232567018
 H        -9.3677195691       -3.5312658915        2.8392889958
 H        -8.4122809687       -4.8394427396        2.0933450076
 H        -5.2759679745       -0.7537957911        5.0586409919
 H        -4.2787073401       -0.5276752643        3.4773423550
 H        -3.9492759328        3.8859940615        3.8895946043
 H        -3.0634412876        4.5517624138        5.1963560557
 H        -5.2668774432        3.2034114992        5.8625866987
 H        -3.7896295709        3.2847351122        7.0084421843
 H        -5.0041434949        2.0638610422        7.2691434217
 H        -2.7571603155       -0.0374968065        5.4876644719
 H        -2.6225226174        0.8143682498        6.9626883098
 H        -4.1641097402       -0.1215354935        6.6351908781
 H        -1.0315562409        3.7316642697        3.3815766412
 H        -1.8145666798        5.3966059888        3.3034084725
 H        -1.5078001437        3.8863405633       -1.1105510464
 H        -2.0264913582        5.2566656883       -2.0099325933
 H        -3.6904355632        3.2400478484       -0.3631051279
 H        -4.7110611506        4.7700250783       -0.6893007947
 H        -5.1761826442        3.8105951876        0.6984722661
 H        -4.4991439179        6.4717663911        1.0262926252
 H        -4.8035927027        5.2925526771        2.2676962855
 H        -3.4622185201        6.4205639490        2.5245583199
 H         0.1718839505        6.4150358705       -0.9372406365
 H         0.7514459735        4.8902021647       -0.4395592496
 H         0.9742551064        3.2471186816       -4.5111131546
 H         1.7975640515        1.6598336245       -4.2097703280
 H         0.3802499011        2.0642087956       -3.2902655226
 H         1.8325328633        4.9846657933       -4.8806766856
 H         3.4787721098        4.6492684577       -4.5075621186
 H         2.7045077690        6.2074047879       -4.0510093938
 H         3.1222210439        6.4646088864       -1.5733564193
 H         2.8535560072        5.0620314819       -0.6116442218
 H         3.9692718728        4.9497962809       -1.8692381931
 Na        3.2074171900        0.2334201571       -1.9577591555
