155

 C         4.2148300880       -2.3626477870       -5.4583112919
 C         4.2391919695       -1.2646831741       -4.4523755455
 C         5.5086729739       -0.4492666034       -4.0425930055
 C         6.0337080857       -0.6760598642       -2.6271680160
 C         7.1372313048       -1.7331810289       -2.3518668140
 C         6.6832464341       -0.6766444500       -5.0520285607
 C         5.1307378476        1.0651077921       -4.1827447277
 O         3.1926039379       -0.7940316131       -3.9811355482
 O         5.6852825155        0.0922021374       -1.7864943759
 C         6.9100954904       -2.6679829736       -1.1146852164
 C         5.5595599578       -3.3555927448       -1.4403802998
 C         5.1932312585       -4.7686373958       -0.7846409203
 C         4.2548721860       -4.3271613583        0.3965236444
 C         2.7503882464       -4.1336490381        0.2381570117
 O         4.7215479891       -2.8302016612       -2.1993422795
 O         4.8136451168       -4.0544350058        1.4744748468
 C         4.3955342192       -5.6214207399       -1.6498973516
 C         6.4106949558       -5.6428236951       -0.3696670777
 C         2.2932130902       -2.9946190163        1.2234764436
 C         2.2865265057       -1.6487988799        0.5168013157
 C         1.5217585631       -0.3673239434        1.1318501943
 C         0.4378243263        0.0013822167       -0.0064894499
 C        -1.0177282651       -0.0786424293        0.2021480868
 C         0.7731172344       -0.6426170985        2.4362476888
 C         2.5276143016        0.8514516067        1.2544940580
 O         2.9855276733       -1.4904353911       -0.4337878053
 O         0.9345209670        0.4298464113       -1.0584582471
 C        -1.7833317084       -0.8996203998       -0.8307059264
 C        -1.2932801031       -2.3637167497       -1.1241609825
 C        -2.4202947081       -3.4834489476       -1.4497257074
 C        -3.3256260781       -3.7500890273       -0.1898090356
 C        -4.3447011536       -4.8865359388       -0.2165600518
 O        -0.1486616200       -2.6403467186       -0.8908004190
 O        -3.3248281414       -2.9587742217        0.7098320878
 C        -3.2932170636       -2.8565550951       -2.5832848970
 C        -1.5987766818       -4.7882007793       -1.8724104112
 C        -5.1666164321       -4.7288224250        1.0156918398
 C        -6.1432332866       -3.6107854550        0.7182084317
 C        -6.9798156133       -2.9386317094        1.9385632473
 C        -5.9010807705       -2.2963517202        2.8982460431
 C        -5.9872627461       -0.7867851837        3.1361976528
 C        -7.9176459974       -1.8365048255        1.3536360660
 C        -7.8675927733       -3.9793786942        2.6679548405
 O        -6.2754189044       -3.1530842334       -0.3800889331
 O        -5.1403877877       -3.0376297023        3.4657399810
 C        -5.2319626479       -0.3708869113        4.3737228105
 C        -5.2854641409        1.1012508050        4.7796565528
 C        -4.1634944936        1.6105754151        5.6767427782
 C        -3.1052048809        2.3047142026        4.6787907114
 C        -3.4357182518        3.5560595636        3.9679613748
 O        -6.0122952120        1.8740813798        4.1645978343
 O        -2.0311950835        1.8489129708        4.7195164826
 C        -4.8095977730        2.8669626692        6.6185455172
 C        -3.4254838691        0.6575271808        6.7017161469
 C        -2.2106552338        4.0330755914        3.0797554419
 C        -2.4041769372        3.6981963613        1.6315551082
 C        -3.3129281638        4.7502382108        0.7853618642
 C        -2.1635893315        5.7450114221        0.0725303097
 C        -1.2126318919        5.1056127328       -0.8626410281
 C        -4.1552925929        3.9825841644       -0.2430883886
 C        -4.2550547161        5.6066382828        1.5835512874
 O        -1.8934780316        2.8110644896        0.9889934369
 O        -2.0355042720        6.9102779390        0.5101932776
 C        -0.0860018489        5.9159856142       -1.2880304577
 C         0.6796786582        5.2704838039       -2.5486891737
 C         2.2672559006        4.9527535746       -2.5723965321
 C         2.3151450280        3.4358485599       -2.5983935426
 C         1.3850157666        2.5159723525       -3.4766105210
 O         0.0712380304        4.9488112502       -3.5290895239
 O         3.1319872282        2.8496992838       -1.9096286657
 C         2.8213786889        5.5676834802       -3.8747027730
 C         3.0350371858        5.3951261428       -1.2907288435
 H         5.0534908186       -3.1384791565       -5.2568629290
 H         3.2483205517       -2.7435831181       -5.4685324722
 H         4.3069213783       -1.9453216731       -6.4611186818
 H         7.1907666121       -2.3923310663       -3.2793449965
 H         8.2492384944       -1.3252079273       -2.3832437267
 H         7.2602572809       -1.6339316241       -4.9512546586
 H         7.4574849548        0.2189953994       -5.1347134144
 H         6.2960068700       -0.7881917268       -6.0903841259
 H         5.2832013071        1.2933938218       -5.2045023463
 H         4.0320575015        1.1522147412       -4.0105795134
 H         5.6121341785        1.7271943535       -3.5453661384
 H         7.8152613941       -3.2902605522       -1.0268751151
 H         6.8109302499       -2.1745308573       -0.1100173245
 H         2.4796732662       -3.9338760202       -0.7992350044
 H         2.2820582848       -5.0667562675        0.5472690053
 H         3.6461968237       -5.1221861829       -2.3193534605
 H         3.8255859535       -6.3577029599       -0.9353818302
 H         5.1428953599       -6.2157217312       -2.1669413050
 H         7.1322460388       -5.2718580732        0.2885893423
 H         5.9938758554       -6.5828592439       -0.1666959982
 H         6.9474877587       -5.7524330044       -1.3236493622
 H         3.0393178248       -2.8868828044        2.0045140255
 H         1.3646112918       -3.2391603252        1.7510613065
 H        -1.2123038380       -0.6297950297        1.2005149004
 H        -1.4834836234        0.9365495808        0.1106070551
 H         0.0459498184       -1.4161566990        2.3777205381
 H         0.2888020952        0.3578256897        2.6511062261
 H         1.4014827022       -0.9515870735        3.3215729570
 H         3.3939296116        0.4597230568        1.7256010492
 H         2.9422849308        1.1267132371        0.3053939615
 H         2.3348893818        1.7373143968        1.8457598277
 H        -2.7870127914       -0.8837831534       -0.5232018017
 H        -1.6978553894       -0.2038908091       -1.6206484339
 H        -5.1585487219       -4.8409706112       -0.9659107333
 H        -3.8668566335       -5.8613724967       -0.2253551380
 H        -3.7944731668       -2.1133390656       -2.0341132965
 H        -3.9248866270       -3.6253674804       -3.0785275254
 H        -2.8166308208       -2.4242249158       -3.4417139956
 H        -0.8508628998       -4.9517789296       -1.0851333087
 H        -2.1935183740       -5.6602292379       -2.1045103466
 H        -1.0244172943       -4.4945282429       -2.6722143668
 H        -4.4876401097       -4.6351777038        1.8628736836
 H        -5.7481400162       -5.6319185895        1.2360155869
 H        -5.5548771117       -0.2772212464        2.2732662736
 H        -7.0702885478       -0.5955322944        3.3078549165
 H        -8.2653162393       -1.1433990695        2.0801182216
 H        -8.6107186758       -2.3569275222        0.7115369776
 H        -7.2734441084       -1.1679442535        0.6347472890
 H        -7.3323743861       -4.4712295090        3.5041955772
 H        -8.7941801310       -3.5039633728        3.0109862307
 H        -8.0965932368       -4.7894345697        2.0256312763
 H        -5.4490242147       -0.9998795956        5.2759357103
 H        -4.1862173221       -0.5166693863        4.3223930169
 H        -4.3113250808        3.3506215061        3.4127278058
 H        -3.6873320687        4.3527647415        4.7003062275
 H        -5.3959805473        3.5072026458        6.0417576615
 H        -4.0333429736        3.3991911663        7.0571039703
 H        -5.5191267827        2.3721807400        7.2708008347
 H        -2.8253734003       -0.0761707664        6.1707284439
 H        -2.7590966202        1.2891027356        7.3117340100
 H        -4.1435515793        0.1602799019        7.3586541269
 H        -1.2675593131        3.6547235484        3.4695422223
 H        -2.0897129290        5.0952378942        3.2601360280
 H        -0.7491456039        4.2203093258       -0.3953341289
 H        -1.8714847551        4.7985753527       -1.6789833977
 H        -3.6318788984        3.1932620118       -0.7302371715
 H        -4.5161885518        4.6394237924       -0.9825878525
 H        -5.0017231206        3.5630525837        0.2337895728
 H        -4.7323082943        6.3287040320        0.9060448776
 H        -5.0622030549        5.0232805337        2.1015965684
 H        -3.6842273346        6.1882702422        2.2637628516
 H        -0.5376540284        6.8483464672       -1.6208306731
 H         0.6126461360        5.9869529959       -0.4519668683
 H         0.9583645199        2.8917802413       -4.3602106971
 H         1.9379709407        1.6257601897       -3.6082496124
 H         0.4021848599        2.2830083659       -2.9124795106
 H         2.1869862165        5.2202812054       -4.7627211393
 H         3.8603027101        5.3899060881       -3.9446893261
 H         2.7630608312        6.6488533923       -3.8544855778
 H         2.9233545535        6.4813379345       -1.1341085981
 H         2.7083880334        4.7664055954       -0.4301260967
 H         4.1210514371        5.1080512573       -1.3945890662
 Na        3.1167199139        0.5154980257       -1.8137208278
