155

 C         4.6651731640       -1.0481945186       -5.7921870075
 C         4.5177488144       -0.3089842988       -4.4744282483
 C         5.8425452618        0.1291065087       -3.6421246682
 C         5.8708137057       -0.6113337619       -2.1807332560
 C         7.1604581225       -1.4678889618       -1.9491741983
 C         7.1491310866       -0.1283248683       -4.4613261660
 C         5.8297063169        1.6468777064       -3.4752682199
 O         3.5160555837        0.2617910753       -4.1739531205
 O         4.9625103992       -0.4504142665       -1.3751725898
 C         7.1831690508       -2.2608681873       -0.6796513097
 C         6.2554716333       -3.4607655836       -0.5312034944
 C         5.8562134294       -3.8895367172        0.8836800888
 C         4.3688234549       -3.3475177732        1.0439016756
 C         3.2722843282       -4.1187443981        0.4538456768
 O         5.9227561377       -4.0691678016       -1.5360388620
 O         4.1045433934       -2.2984466194        1.6296897386
 C         5.7568963334       -5.4053946550        0.9683456379
 C         6.8289065642       -3.4162826929        2.0218207447
 C         2.0094251505       -3.3805714957        0.7890198914
 C         1.8422064551       -1.9942173726        0.1109879338
 C         0.9801237423       -0.8186163391        0.8081003123
 C         0.2848647602        0.0162057578       -0.3140212475
 C        -1.2543143881       -0.0814438589       -0.5635223144
 C        -0.0070457878       -1.2470381472        1.9476350480
 C         2.0697439074        0.0586609600        1.4871574621
 O         2.4383774171       -1.7692566107       -0.8766793594
 O         0.8650181625        0.7730726920       -1.0663757022
 C        -1.6814727430       -0.4935719551       -1.9619736413
 C        -1.2428371138       -2.0442010786       -2.2492671372
 C        -2.3189504358       -3.0937397235       -2.3242136496
 C        -2.8833998287       -3.4576852027       -0.8839047602
 C        -4.0542741398       -4.6035359069       -0.8311612410
 O        -0.0792463330       -2.4019504100       -2.2019393056
 O        -2.4689205383       -3.1037289912        0.1539025153
 C        -3.4079776431       -2.5034202891       -3.2829917166
 C        -1.7345448996       -4.3374143343       -2.9387536399
 C        -4.5447132591       -4.7518986259        0.6531084248
 C        -5.5793585416       -3.6296395379        0.9131453480
 C        -6.6675834424       -3.8466758619        1.9770649255
 C        -6.0723840563       -3.1987875971        3.2638244581
 C        -6.4075681855       -1.7473508772        3.4920756723
 C        -7.9851051803       -3.1705480834        1.4624171898
 C        -7.0609033281       -5.3578488976        2.2426785032
 O        -5.6104260554       -2.5863229817        0.3016375805
 O        -5.2986051723       -3.8553905291        3.9826733566
 C        -5.6526465728       -1.1884672386        4.7327262402
 C        -5.6828291516        0.3593134355        4.7300734410
 C        -4.5799577195        1.1800311473        5.5212465403
 C        -3.5160060218        1.8463578379        4.5118757664
 C        -4.0832227073        2.1131828547        2.9744084590
 O        -6.4354788395        0.9420687843        4.0549039570
 O        -2.3789000246        1.9369032060        4.7498092417
 C        -5.3797148811        2.2124641479        6.2409390661
 C        -3.8733615357        0.3906128901        6.6019641886
 C        -3.0356991425        3.0850176773        2.3755350043
 C        -3.2684430213        3.3985376804        0.8697272354
 C        -3.3945209815        4.8872988439        0.4738721762
 C        -1.8463193413        5.3982917843        0.6133001778
 C        -1.2414993675        5.4903801951       -0.7955559478
 C        -4.0434935851        4.9702384941       -0.8891229926
 C        -4.2276105654        5.6902738081        1.4603841726
 O        -3.3567052343        2.5111340160        0.0558210825
 O        -1.2895357498        5.7581893030        1.5872674743
 C         0.3493556042        5.7474862554       -0.7642207200
 C         0.7525014166        5.7028705246       -2.2660131918
 C         2.2819224860        5.2120961881       -2.5069968926
 C         2.1209972162        3.6121087166       -2.7171934229
 C         1.0077135764        3.1064555790       -3.4853636480
 O         0.0018438802        5.9129405350       -3.2147753745
 O         2.9199806523        2.9358643925       -2.1177434750
 C         2.7957675370        5.8319458102       -3.8760951019
 C         3.3447317991        5.4452488184       -1.3940605315
 H         4.7694394720       -2.1750064272       -5.7200817346
 H         3.8658575825       -0.7127128604       -6.4394824369
 H         5.5974514832       -0.6428817711       -6.2305377278
 H         7.0948772500       -2.1612965804       -2.8073915982
 H         8.1359678823       -0.8892231654       -2.1369573702
 H         7.1474499317       -1.1765439336       -4.6891442985
 H         8.1119859514        0.0936464840       -4.0305721022
 H         7.0583857543        0.4654700586       -5.3685127515
 H         5.2762884793        2.0117648089       -2.5647925843
 H         6.9134207738        1.8215146515       -3.2773831909
 H         5.3948699618        2.2114143503       -4.3155336772
 H         8.2058875092       -2.7513533830       -0.5952484417
 H         7.1004723079       -1.7273710850        0.2882606911
 H         3.3626801496       -4.3164122296       -0.6235021609
 H         3.1641539834       -5.0130899275        1.0035703279
 H         5.2957008707       -5.8037358060        0.0620300131
 H         5.1132758541       -5.9513713797        1.7947556938
 H         6.7361482341       -5.8538785560        1.0291883295
 H         6.4623861645       -2.5967475786        2.6043678563
 H         6.9803438376       -4.1600658996        2.8201046043
 H         7.8134371329       -3.1360249624        1.5867540411
 H         2.0954651022       -3.1834426336        1.8405757060
 H         1.0823709626       -3.8660541946        0.6174087610
 H        -1.8527340920       -0.7055049107        0.1531629854
 H        -1.7085951081        0.8479103096       -0.2201271602
 H        -0.3044721060       -2.2260581988        1.7560917807
 H        -0.9250773067       -0.7025087526        2.0414906224
 H         0.4603278979       -1.1584198804        2.9275825468
 H         2.5930469154       -0.4175995139        2.3041451397
 H         2.7028513906        0.3602236386        0.6686096136
 H         1.6342050399        1.1005916047        1.7583506501
 H        -2.7425278513       -0.5637704192       -1.7901495879
 H        -1.3869370182        0.0574918290       -2.8023411129
 H        -4.8865451045       -4.3021837530       -1.4360012179
 H        -3.5826182495       -5.5120978932       -1.2578254952
 H        -4.2386962817       -1.9319690946       -2.9100789827
 H        -4.1000242307       -3.1703639439       -3.8083567869
 H        -2.9505857687       -1.9106868258       -4.0474642373
 H        -0.9814917150       -4.8834490784       -2.2997979533
 H        -2.5864334739       -5.0591313175       -2.9896970385
 H        -1.2693093208       -4.1299904808       -3.8932205785
 H        -3.6821986154       -4.7613211700        1.3909520066
 H        -5.0100487054       -5.7138708132        0.6501168989
 H        -6.0679506341       -1.1668030577        2.6269970209
 H        -7.5028254370       -1.7238616599        3.5897828583
 H        -8.7236752766       -3.0961572495        2.2727351675
 H        -8.4680891938       -3.7336114926        0.6963258260
 H        -7.7658308292       -2.1924017758        0.9432436093
 H        -6.2812104663       -5.9075894584        2.6822765347
 H        -7.9286669153       -5.4398323961        2.9080929089
 H        -7.3394384132       -5.8565959551        1.2586702264
 H        -6.2378573850       -1.5225265051        5.6251202993
 H        -4.6969556289       -1.6292178833        4.8516882640
 H        -3.9994408698        1.3864969201        2.1858316964
 H        -5.0961828095        2.5357981973        3.0683922650
 H        -5.8743833225        2.8849931952        5.5656528674
 H        -4.7099578907        2.8090014502        6.8468043885
 H        -6.0818048978        1.8566379420        7.0639043897
 H        -3.3202145352       -0.4643082865        6.3020321708
 H        -3.1327346888        1.0249881024        7.0134719124
 H        -4.6475130158        0.1175389830        7.3914728185
 H        -2.0493274455        2.6177055089        2.5143612078
 H        -3.1100866531        4.0324969936        2.8879369245
 H        -1.2784845744        4.5419765802       -1.3607558774
 H        -1.8272998275        6.2332965670       -1.3334998837
 H        -3.5015540727        4.2284831801       -1.5768234780
 H        -4.1011940465        5.9385079995       -1.3871247380
 H        -5.0262226280        4.4913332781       -0.8505398580
 H        -4.1474868833        6.7431449059        1.2164593856
 H        -5.2617276218        5.4582125572        1.4962636721
 H        -3.8336296718        5.5786635864        2.4673568012
 H         0.5115683196        6.8143415237       -0.5011701834
 H         0.9529294213        5.1654349518       -0.1153905534
 H         1.2896720933        2.2173574141       -4.0488350129
 H         0.2045121860        2.7072359824       -2.8488413888
 H         0.7077963631        3.8284387579       -4.2632543696
 H         1.9923424938        5.5978551232       -4.5913564393
 H         3.7180965943        5.3474757300       -4.2456473488
 H         2.8241200122        6.8678447740       -3.7091374358
 H         3.6228798204        6.4238826730       -1.2122764226
 H         3.0751367741        5.0679044225       -0.4661483037
 H         4.2602625774        4.9767352592       -1.8145030945
 Na        2.9464871765        0.6181140575       -1.8477025055
