155

 C         5.3863695376       -1.3214992921       -5.6258358017
 C         5.1332455864       -0.4456906104       -4.3638783359
 C         6.2046606343        0.3615228485       -3.5682230572
 C         6.2951089252       -0.1596042053       -2.0950143371
 C         7.4040976509       -1.1714595842       -1.7635311116
 C         7.6179998759        0.2577771736       -4.2815990227
 C         5.7576367769        1.8762091457       -3.7903986168
 O         3.9517124660       -0.1851099788       -4.1492961141
 O         5.4179947572        0.1354590733       -1.2700556452
 C         7.2446865962       -1.9063515562       -0.4708564624
 C         5.9340010599       -2.8518189733       -0.4576250356
 C         5.5303603248       -3.2731829894        1.0452839970
 C         4.0096905425       -3.2073612982        1.2850062914
 C         3.1703496708       -3.9145660463        0.2644097900
 O         5.6058916590       -3.4956618445       -1.4057387808
 O         3.5192567848       -2.5127909082        2.0986149084
 C         6.0447818461       -4.6893589103        1.3585426715
 C         6.1794948207       -2.2795684924        2.1113115121
 C         1.7299649311       -3.3607547565        0.2431754209
 C         1.7709601464       -1.8614951844       -0.0484720540
 C         0.9564446687       -0.6165620728        0.5644440283
 C         0.1322240621        0.0411033210       -0.5921329976
 C        -1.3911184353        0.2472903215       -0.5932555706
 C         0.0035956790       -1.0642438520        1.7558132999
 C         1.9352891143        0.3232619049        1.2548374315
 O         2.7169533412       -1.5547570628       -0.7610628589
 O         0.7478699113        0.4489186707       -1.5929582739
 C        -2.1248955800       -0.5004867894       -1.6979467404
 C        -1.5164395808       -1.9130353490       -2.1421823698
 C        -2.5193314082       -3.1021994036       -2.3547571036
 C        -2.7893055953       -3.5738018923       -0.8116828139
 C        -3.7467639175       -4.7889266906       -0.7619987935
 O        -0.2980019001       -2.0797908046       -2.1481870685
 O        -2.1875222486       -3.1251961216        0.1452693396
 C        -3.7668551918       -2.6028859193       -3.2289500189
 C        -1.7984204999       -4.2115347218       -3.0434322225
 C        -4.5552220505       -5.0024711637        0.5740432124
 C        -5.7559521770       -4.1063634656        0.6541036462
 C        -6.6924083933       -4.2869483322        1.9123536826
 C        -6.0401977456       -3.4305445170        3.1492942058
 C        -6.3318456003       -1.8886384965        3.2133389363
 C        -8.1139510781       -3.7006473898        1.5883304548
 C        -6.7964706741       -5.7695318598        2.4214364731
 O        -5.8944354739       -3.1207028129       -0.0268280491
 O        -5.4268755885       -4.0281730859        3.9921034221
 C        -5.3620486870       -1.2731937872        4.1344894108
 C        -5.8463575861        0.1223265751        4.5455033724
 C        -4.7163604690        1.0380263443        5.3629850623
 C        -3.7734433644        1.3016181639        4.0855429772
 C        -4.0511561638        2.5655171350        3.2026807039
 O        -7.0035486333        0.5145280035        4.3102161036
 O        -2.9049003954        0.4652454574        3.7431068700
 C        -5.3691017229        2.2607300773        5.9541188710
 C        -3.9952664074        0.2782923880        6.4361799473
 C        -2.8340319851        3.0547599733        2.4384600651
 C        -3.2521500533        3.4521939573        1.0404855218
 C        -3.3087756294        4.9408984834        0.7196597578
 C        -1.8196396349        5.4169300411        0.6556656352
 C        -1.2347720239        5.8104215007       -0.6472733260
 C        -4.0853293693        5.1091193971       -0.6700578502
 C        -4.0050881497        5.7549093498        1.8565051212
 O        -3.3159704828        2.6138104676        0.1461986831
 O        -1.1294668481        5.5580062859        1.6889349507
 C         0.1630486437        5.2079929713       -0.9391583462
 C         0.7984468084        5.4600276652       -2.3426204480
 C         2.3768475133        5.1390833022       -2.3642330188
 C         2.4152388658        3.5659668923       -2.3250083402
 C         1.7450078592        2.9216180444       -3.5518102852
 O         0.1423009217        5.7503636390       -3.3340355995
 O         2.8912801598        2.9440921662       -1.3924905276
 C         2.8903908818        5.5901153294       -3.7183300300
 C         3.1191936037        5.8795751770       -1.2407373723
 H         6.2251048325       -1.9109866317       -5.4653673823
 H         4.4173862307       -1.9151380264       -5.8697507499
 H         5.7217269621       -0.6655686457       -6.4132226380
 H         7.5191057211       -1.8314540517       -2.6310000249
 H         8.3902775795       -0.6227556826       -1.5089297218
 H         8.0516570084       -0.7383749466       -4.3868627568
 H         8.3770789094        0.9553274259       -3.7798348703
 H         7.5619436065        0.6033789117       -5.3158131075
 H         4.9869876929        2.1154253103       -3.0965269121
 H         6.5823230838        2.6310917308       -3.6878786553
 H         5.5069651700        1.9625431569       -4.7846499427
 H         8.0535615864       -2.5005812695       -0.2421512718
 H         7.1183148218       -1.1708409698        0.2648281688
 H         3.5407352905       -3.8206423538       -0.7868583581
 H         3.1512403503       -5.0114863280        0.2981788994
 H         5.9018610560       -5.4144103742        0.5501435761
 H         5.7121937276       -5.0302854587        2.3038615991
 H         7.0940599977       -4.6155592301        1.4366790364
 H         7.0404788273       -2.8446545875        2.5348815792
 H         6.4648917072       -1.3047225122        1.7763242650
 H         5.4180326805       -2.0237967044        2.8505751105
 H         1.0610787603       -3.6434658900        1.1212520489
 H         1.2261314536       -3.7313601087       -0.6810987880
 H        -1.9368418389       -0.0563756116        0.3943389593
 H        -1.6528961057        1.3857320012       -0.6804705195
 H        -0.5946288265       -0.2017920872        2.1362845475
 H         0.6120814322       -1.4511515781        2.6375695307
 H        -0.8003354905       -1.7282580801        1.4198617310
 H         2.5088564620       -0.1432902682        2.0143922202
 H         2.6325430110        0.4857522493        0.4580967368
 H         1.4408751376        1.1678510902        1.6705720832
 H        -3.2205825451       -0.4803755635       -1.4083552871
 H        -2.0990279899        0.1112149805       -2.6355233840
 H        -4.5082649930       -4.7215684125       -1.5355285301
 H        -2.8979193996       -5.4868716837       -0.9650333047
 H        -4.3822136644       -1.8428857840       -2.7252917601
 H        -4.2172520902       -3.3598609453       -3.8287200259
 H        -3.4128051311       -1.8654885394       -4.0779721054
 H        -0.9069754834       -4.3461476732       -2.4226992176
 H        -2.4278711774       -5.0961777819       -3.2367575992
 H        -1.6024051830       -3.8770966005       -4.0197349739
 H        -4.0066018812       -5.0367264249        1.5380596671
 H        -5.0357779036       -5.9705605033        0.4752022153
 H        -6.0973257730       -1.4790063405        2.1943395353
 H        -7.3245191553       -1.5339465752        3.4483713686
 H        -8.7547648387       -3.2952303805        2.5029313757
 H        -8.6675878834       -4.5113627272        1.1196613201
 H        -7.9924942433       -2.7855273592        1.0102211959
 H        -6.1807088711       -5.9175747863        3.2886996444
 H        -7.8596731690       -5.9220819615        2.6667095483
 H        -6.5154452585       -6.5137273988        1.6857229289
 H        -5.3352205396       -1.7753574522        5.1079833063
 H        -4.3827856536       -1.1953192303        3.6728626405
 H        -4.8461392308        2.2972994994        2.4989479375
 H        -4.4285434891        3.3240693755        3.8481609958
 H        -6.0587125758        2.7913107521        5.2335413130
 H        -4.6648171622        2.9972684717        6.1776555320
 H        -6.0515492078        2.0708188698        6.7732344900
 H        -3.6457697533       -0.6913581004        6.1251094876
 H        -3.1970025755        0.9232805524        6.7880956914
 H        -4.5918692333        0.1601735078        7.3764312987
 H        -2.1310515267        2.1410937426        2.5806415793
 H        -2.3636093344        3.9505674964        2.8380607690
 H        -1.9767001639        5.4329519167       -1.4054961436
 H        -1.0880494614        6.8450180204       -0.8558343157
 H        -3.6817172968        4.3813231845       -1.3274280152
 H        -3.9327178224        6.1181885743       -1.0861491669
 H        -5.1444327183        4.9013972821       -0.5338243813
 H        -4.2569689905        6.7882787861        1.5129783556
 H        -4.9907241261        5.2453244284        1.9623461597
 H        -3.5786295241        5.8196535586        2.8184260548
 H         0.8320416703        5.7437144087       -0.3475054182
 H         0.2179345218        4.1615897633       -0.6037500554
 H         2.5576436732        2.5584830989       -4.0970871700
 H         1.1124582914        2.0654967339       -3.2470101198
 H         1.0972471018        3.5192445396       -4.2223636689
 H         2.2906587712        5.2329062854       -4.5932686371
 H         3.9063673070        5.2870779585       -3.6708384487
 H         2.9687456213        6.6469690540       -3.7993879777
 H         2.6352327950        6.8871048987       -1.1749835504
 H         3.1985345800        5.3380309918       -0.2810116680
 H         4.1811033563        6.0223413349       -1.3310072816
 Na        3.0613617928        0.3183755987       -1.8878149579
