155

 C         5.3822817406       -1.3999160450       -5.4652673672
 C         5.1915447543       -0.4187405595       -4.2279625255
 C         6.4412744831        0.4039288215       -3.6859582569
 C         6.4474310358       -0.1224073123       -2.1385066480
 C         7.4749991395       -1.1254753661       -1.5610483655
 C         7.7724209223        0.2772960036       -4.3903110370
 C         5.9339697957        1.8698140293       -3.7507067467
 O         4.0672020089       -0.2771421634       -3.7760574765
 O         5.4825371032        0.1157333615       -1.4486865036
 C         7.1506007400       -1.3953783966       -0.0999516305
 C         5.9000239482       -2.4302850178       -0.0585631846
 C         5.4753948581       -3.0644219050        1.3320776350
 C         3.8977553333       -3.0023226410        1.3440542179
 C         3.1534764884       -3.7691953746        0.2544227935
 O         5.3180231798       -2.7117084545       -1.0978630305
 O         3.2568028639       -2.4125804684        2.2007270753
 C         5.9589605025       -4.5265643914        1.2513390785
 C         6.0003434199       -2.3452223332        2.5864435555
 C         1.7903002376       -3.2000912816       -0.0966834695
 C         1.9771755946       -1.7265543149       -0.2291397342
 C         0.8778736435       -0.7182886713        0.4111155072
 C         0.1491432887        0.0491966599       -0.7347091108
 C        -1.3892979855        0.2878392934       -0.6590690395
 C        -0.0795931768       -1.2048290469        1.5018279518
 C         1.8058383155        0.4682655318        1.1315288519
 O         2.9460457432       -1.3774946533       -0.9293927657
 O         0.7770342088        0.6971186688       -1.6098140430
 C        -2.2738720013       -0.5481962405       -1.6453755563
 C        -1.6833410028       -1.9693744196       -1.8711596866
 C        -2.7424935187       -3.1797897901       -2.0605878417
 C        -3.0688458423       -3.8054855025       -0.7236100079
 C        -3.7230968097       -5.1882276540       -0.7350178443
 O        -0.4897846111       -2.1769885455       -1.8906168120
 O        -2.7204854381       -3.2486667728        0.3088544368
 C        -3.9610908856       -2.7332795273       -2.8893738772
 C        -2.0282441358       -4.1703216884       -2.9901228261
 C        -4.5565157196       -5.3251763493        0.6263309090
 C        -5.7266621428       -4.3893715807        0.6279746130
 C        -6.7794050231       -4.5042459245        1.8494345688
 C        -6.0352318878       -3.7630991383        2.9229134414
 C        -6.2350909612       -2.2199241137        3.0025444032
 C        -8.2030312360       -3.8707177181        1.5784025213
 C        -6.9673744571       -5.9240546835        2.3172269030
 O        -5.9012167651       -3.5373961655       -0.2289660626
 O        -5.2829065136       -4.2883048719        3.6665374895
 C        -5.3982005755       -1.5256653287        4.0793116564
 C        -5.9010100990       -0.1813158694        4.5746587002
 C        -4.8556177607        0.9121265705        5.1346584648
 C        -3.8952841869        1.3386588290        3.9418387164
 C        -3.7805289484        2.7026841204        3.3817840676
 O        -7.0641188728        0.1709334125        4.4383110826
 O        -3.0331656716        0.4742381142        3.6197100610
 C        -5.6033704023        2.0662146290        5.8216700895
 C        -3.9503377869        0.2584439102        6.1750416159
 C        -2.7024561899        2.8052945697        2.2682681492
 C        -3.1756771418        3.4987299357        0.9212299999
 C        -3.3592509650        5.0856427203        0.8883530736
 C        -1.8910030003        5.4460651080        0.4994917163
 C        -1.2991454792        5.3329849341       -0.9514121109
 C        -4.3539277895        5.4200064838       -0.2842212465
 C        -3.7299935466        5.7705468699        2.1565084443
 O        -3.1221632102        2.9388398759       -0.1671036375
 O        -1.1341992626        5.6759062190        1.4638384858
 C         0.1757255660        5.1060004762       -0.9452650484
 C         0.8882599686        5.5263962621       -2.1954588966
 C         2.4906241344        5.1871522525       -2.3732603540
 C         2.7229700387        3.7044668768       -2.5461053035
 C         2.1780809834        3.0333721017       -3.8466294615
 O         0.2674223738        5.7336280599       -3.2215278399
 O         3.3645586380        3.0812085545       -1.7119787399
 C         2.8120146129        5.9660614772       -3.6941530528
 C         3.3255890093        5.6123739718       -1.0654616488
 H         5.7921561988       -2.3236560369       -5.1463566734
 H         4.3926433153       -1.5964989596       -5.8194786316
 H         6.0751499275       -0.9168525003       -6.1927399378
 H         7.5443111589       -2.0241700672       -2.1060423927
 H         8.4096207741       -0.5129522905       -1.5267764910
 H         8.2677548878       -0.6902254119       -4.3658805272
 H         8.4115160176        0.9111390702       -3.7058635835
 H         7.8820163765        0.6024315211       -5.3963807927
 H         4.8594670218        1.9224921346       -3.6785025330
 H         6.3769033298        2.4425848333       -2.9093455279
 H         6.1629428680        2.2812280555       -4.7325738664
 H         7.8992936470       -1.8442196930        0.4361832746
 H         6.8546753245       -0.4478898999        0.3220709564
 H         3.7607089989       -4.0221947244       -0.6497123215
 H         3.0159900748       -4.7877067527        0.7023502504
 H         5.6401233809       -4.9463155915        0.2555847157
 H         5.6363145976       -5.0423786449        2.0750023708
 H         7.0658855810       -4.6197761773        1.2839849036
 H         6.5294957642       -1.4561904229        2.3499241676
 H         5.0818865779       -2.1964554794        3.0659471653
 H         6.5880463186       -2.8824649481        3.2290732154
 H         0.9950012115       -3.5107677745        0.6605858588
 H         1.4191098943       -3.5544776476       -1.0835506183
 H        -1.7176324134        0.0053081129        0.3302355944
 H        -1.4959055595        1.4273771897       -1.0023200930
 H        -0.4317500518       -0.2919785494        2.0225871113
 H         0.4959852298       -1.9161846710        2.1036394167
 H        -1.0262131311       -1.6528703500        1.2392243365
 H         2.3279477667       -0.0057004966        1.9827375063
 H         2.5061867138        1.0317468608        0.4780870932
 H         1.0749964439        1.0891732054        1.5410526282
 H        -3.3389441822       -0.4748859242       -1.3038386490
 H        -2.3416546104        0.0338166643       -2.5886258693
 H        -4.2656126718       -5.1739029647       -1.6857254599
 H        -2.9509709242       -5.9923971303       -0.7215450907
 H        -4.7404522378       -2.0713151770       -2.3784185250
 H        -4.6315264716       -3.5416900485       -3.1938448676
 H        -3.5593789284       -2.2452806827       -3.8743475129
 H        -1.1893340737       -4.4804750213       -2.4870237853
 H        -2.7012216898       -4.9681955490       -3.1815263190
 H        -1.8722766614       -3.6976441730       -3.9579613983
 H        -3.9290822331       -5.2146791454        1.5099029921
 H        -4.9337402447       -6.3374923003        0.6775376547
 H        -5.9622777259       -1.8602762561        1.9644635990
 H        -7.2842015107       -1.9975132748        3.0564959598
 H        -8.9868503796       -4.0744952856        2.2995035336
 H        -8.6875051340       -4.3303713540        0.6498218223
 H        -8.1131036557       -2.8376152655        1.3091239518
 H        -5.9813639131       -6.4135146287        2.4241458104
 H        -7.3658973141       -5.8525084618        3.3565880922
 H        -7.6790340984       -6.4471467346        1.7391871130
 H        -5.3747326321       -2.1660703051        4.9888072247
 H        -4.3557707105       -1.3861486379        3.7012027094
 H        -4.7190318093        3.0663821394        2.9462524337
 H        -3.6121190253        3.4993040151        4.0699977014
 H        -6.3087444473        2.5737000876        5.1228622154
 H        -5.0400808561        2.8969317181        6.2235911889
 H        -6.1767773888        1.6503840523        6.5716796797
 H        -3.0766461398       -0.1790613899        5.6942740208
 H        -3.5667056610        0.9663472446        6.9271103061
 H        -4.4724563776       -0.4444185102        6.7949373213
 H        -2.2791658756        1.9020859341        1.8109439445
 H        -1.8906935881        3.3431913556        2.6874282442
 H        -1.9378357522        4.4889218517       -1.3379919699
 H        -1.5090557326        6.1914161129       -1.5724694403
 H        -4.0127327952        4.8540127237       -1.0494857319
 H        -4.2676986879        6.4291616058       -0.4710578736
 H        -5.3427065649        5.1207496259       -0.1473041556
 H        -3.9432037968        6.8405094617        2.0214258631
 H        -4.6664975548        5.2745002881        2.4765027759
 H        -3.0271802031        5.6616631193        2.9122121661
 H         0.5247150216        5.6888436977       -0.1505189534
 H         0.3456498030        4.0682047129       -0.5787161748
 H         1.8098066068        2.0171208332       -3.6794046037
 H         1.4229574746        3.6349342851       -4.3573225069
 H         2.9867984296        2.8274430562       -4.5757929182
 H         2.2416183879        5.6479764492       -4.6081327468
 H         3.8532235728        5.7620093474       -3.8743573482
 H         2.6852600066        7.0549406695       -3.5311661128
 H         3.1350875640        6.7436091494       -0.9934740247
 H         2.8242027586        5.3155004912       -0.0768760698
 H         4.3713410014        5.4049611438       -0.9552935754
 Na        3.3649424445        0.8041864104       -1.8498685857
