155

 C         5.3050274103       -1.5303054076       -5.0341368434
 C         5.2694456018       -0.3941631898       -4.0422767138
 C         6.5157308993        0.2004262783       -3.3662197079
 C         6.3795521554        0.1992846971       -1.7047835489
 C         7.4631569517       -0.1786628965       -0.7016064650
 C         7.8037782841       -0.4880793371       -3.8413629764
 C         6.5324425774        1.6958129837       -3.8699826639
 O         4.2315980260        0.1950181563       -3.8518282191
 O         5.3394978400        0.6104061767       -1.1725228723
 C         6.8862479155       -0.7873396645        0.5736439941
 C         6.0461887370       -2.0490321893        0.1665792083
 C         5.5101428114       -2.9951027561        1.3666811843
 C         3.9184328861       -2.7355745387        1.2361651598
 C         3.2053202106       -3.6241114828        0.1080949430
 O         5.8892786377       -2.4046038510       -0.9853621950
 O         3.3768333172       -1.9004287693        1.8582952022
 C         5.9932843866       -4.4003649074        1.1014575706
 C         5.9707298750       -2.6121032559        2.7517435703
 C         1.7235907819       -3.1873174226        0.1542377688
 C         1.7525829818       -1.6861067866       -0.3134879182
 C         0.8275275233       -0.5336758101        0.3818285955
 C         0.0713296971        0.1981401368       -0.7374579361
 C        -1.4305730900        0.3570752912       -0.8983317853
 C        -0.0349708997       -1.1785572193        1.5603932776
 C         1.9164445036        0.5633204888        1.0756509133
 O         2.5386729125       -1.2536458735       -1.1592878219
 O         0.6907870914        0.6129685310       -1.6982319869
 C        -2.1314659740       -0.6074361295       -1.8963301867
 C        -1.8674721498       -2.1236138148       -1.6373409302
 C        -2.9512969710       -3.2579619168       -1.9422065700
 C        -3.2483763473       -3.8710855149       -0.5591871341
 C        -3.5890864702       -5.4827853801       -0.5340471097
 O        -0.7177790905       -2.4228265299       -1.2774982871
 O        -3.4049648693       -3.2311552700        0.4504310144
 C        -4.2426785528       -2.7012442228       -2.5005504968
 C        -2.2444348340       -4.2989060720       -2.8831534142
 C        -4.5649683110       -5.7324201631        0.5373988311
 C        -5.8511605848       -4.8878962667        0.4631525249
 C        -6.8405601284       -4.7642925525        1.7327808460
 C        -6.0047248107       -4.0528648700        2.8915207691
 C        -6.3099394392       -2.5836849656        3.1894718065
 C        -8.1360341154       -4.0901139183        1.1881640165
 C        -7.1726517268       -6.2304136700        2.1057872303
 O        -6.2162212525       -4.4894020354       -0.6056529395
 O        -5.0248944824       -4.6260897326        3.3042187938
 C        -5.2907464437       -1.8291834639        4.0034133169
 C        -5.7957621274       -0.4244635200        4.3251680885
 C        -4.8433989269        0.6450029809        4.8639830537
 C        -3.8318882294        0.9696449517        3.8104170274
 C        -3.9880671777        2.3361824434        2.9767793200
 O        -6.9706540870       -0.0853451178        4.0818204509
 O        -2.8842996017        0.2382284035        3.6046938146
 C        -5.6518285819        1.8733588844        5.3250873950
 C        -4.0268083437        0.0338182790        6.0750969299
 C        -2.7100117272        2.7013750421        2.1308610363
 C        -3.2325007047        3.5714038397        0.9730546694
 C        -2.9967464529        5.0993680760        0.9344941198
 C        -1.5973600184        5.6267264576        0.5259037726
 C        -1.0283944861        5.2200063120       -0.8169334479
 C        -4.0053715401        5.6355950022       -0.1095244835
 C        -3.4121711371        5.7401635882        2.3510118412
 O        -3.7754182904        3.0405047502       -0.0291084221
 O        -0.9559190672        6.4574603187        1.1853965838
 C         0.4745921050        5.3737311733       -0.8443424916
 C         1.0237623754        5.4444919325       -2.2348808906
 C         2.5372618745        5.4235168431       -2.3771055837
 C         2.7973259550        3.9873683385       -2.9616583964
 C         2.0570866194        3.6656884614       -4.2096093477
 O         0.2501969781        5.6422733789       -3.1590125349
 O         3.4211168550        3.1592680753       -2.3455944894
 C         2.9861943977        6.5451040372       -3.4630075355
 C         3.3672757230        5.7712647326       -1.1211974080
 H         5.5016421410       -2.4159003307       -4.4798670715
 H         4.2980121223       -1.5779724917       -5.5409909902
 H         5.9974854677       -1.2946248438       -5.7987870088
 H         8.2343121792       -0.8997806382       -1.0414868979
 H         7.9171290915        0.7698316921       -0.2656361413
 H         7.8807829508       -1.4483568977       -3.3343450615
 H         8.7154779046        0.0346318146       -3.5611656762
 H         7.8799783052       -0.4700581148       -4.9474318979
 H         5.5445330424        2.0927251864       -4.0104566086
 H         7.1752013479        2.2167175387       -3.1159767311
 H         6.9363883345        1.8074098970       -4.8362983962
 H         7.6931021372       -0.8660597661        1.3119529859
 H         6.1293015781       -0.1742189789        1.0525345881
 H         3.6788192113       -3.3482530995       -0.8796005378
 H         3.4865125024       -4.6728341762        0.2942655819
 H         5.9771184255       -4.6949171837        0.0579952080
 H         5.2526068134       -5.0267560043        1.5886466064
 H         6.9356875205       -4.4896511648        1.4835963281
 H         5.6098133448       -1.6254488400        2.8917359107
 H         5.5461291824       -3.1389121924        3.5410399021
 H         7.0604627115       -2.6652818123        2.7519743513
 H         1.3669095016       -3.2019951353        1.1937570751
 H         1.0279905962       -3.8469200827       -0.4085448123
 H        -2.0532373237        0.1943120073       -0.0263288929
 H        -1.5839970528        1.3216112265       -1.2265240326
 H        -0.6381726130       -0.5392053068        2.0997391519
 H         0.6901290600       -1.4991425601        2.3450069294
 H        -0.4745603475       -2.1277657512        1.2603130626
 H         2.7105521780       -0.0818410893        1.2095480189
 H         2.1016814576        1.3339133656        0.3906889194
 H         1.6079397213        1.0108645051        2.0418623814
 H        -3.1880033933       -0.2498207527       -1.9174459855
 H        -1.7523135911       -0.3393062516       -2.9348145605
 H        -3.8028612881       -5.8638004154       -1.5258890994
 H        -2.5663213189       -5.9189256458       -0.3577598973
 H        -4.5897844517       -1.9894135487       -1.7157668188
 H        -5.0936568694       -3.4040752962       -2.4064312567
 H        -4.0334134297       -2.3421451545       -3.5315262059
 H        -1.3335728426       -4.7474555336       -2.4264626084
 H        -2.9979885592       -5.0433581501       -3.1242891788
 H        -1.8949582315       -3.7663287729       -3.6890585190
 H        -4.1469944142       -5.8507999133        1.5650032402
 H        -4.9821111453       -6.7134825250        0.3317319829
 H        -6.4685196999       -2.1383988970        2.2377569888
 H        -7.3093463200       -2.5391239463        3.7526663651
 H        -8.8986749394       -3.8917929899        2.0722130668
 H        -8.5266601533       -4.6646007171        0.3837482870
 H        -7.9990455686       -3.1195154758        0.6532499930
 H        -6.2641146261       -6.7696566202        2.1450224872
 H        -7.6275317819       -6.2779327085        3.0822708753
 H        -7.8385378790       -6.6862096214        1.2960441757
 H        -4.8935226847       -2.3742475165        4.8896470216
 H        -4.4167281462       -1.6164129658        3.4159727445
 H        -4.9708685003        2.1482720239        2.5671243580
 H        -4.1142387214        3.0921611234        3.7549219059
 H        -6.3342828823        2.1796294379        4.5238989586
 H        -5.0558765840        2.5774655997        5.7752203359
 H        -6.3259310091        1.6214198060        6.1814724937
 H        -3.2398649860       -0.6333813175        5.7949662075
 H        -3.5538285296        0.7697465792        6.6667437818
 H        -4.8336383436       -0.5797231968        6.6019376020
 H        -2.2511592473        1.7752192093        1.7618789907
 H        -1.9707352663        3.2219889133        2.8044703209
 H        -1.4318912128        4.3503412619       -1.3225034947
 H        -1.3777911768        6.0363191060       -1.4878969155
 H        -3.8336488355        5.1691234003       -1.0183554020
 H        -3.9113368102        6.6879770431       -0.2334675181
 H        -4.9802034958        5.4689705750        0.2899169194
 H        -3.2992012552        6.8165635472        2.2509050944
 H        -4.4037978476        5.4918196537        2.6720106510
 H        -2.6665649369        5.4462118101        3.0909451684
 H         0.8032015990        6.2714769408       -0.3182309189
 H         0.9562880769        4.6008299348       -0.3440982870
 H         1.0376275747        3.5443703756       -3.9564823157
 H         2.0288639559        4.5513122028       -4.8907348865
 H         2.3081114120        2.7148707367       -4.6973153444
 H         2.3036430704        6.5709343244       -4.3451191671
 H         4.0336797518        6.3989772531       -3.8242754550
 H         2.9958447244        7.4721091843       -2.9797197766
 H         2.8592327988        6.5576686849       -0.5101708814
 H         3.6010220370        4.9045290778       -0.4750231223
 H         4.2434872952        6.2857564420       -1.5633375257
 Na        3.1925153823        0.8163461563       -1.9109042322
