155

 C         5.4938896167       -1.7627526074       -4.6749877601
 C         5.3126147713       -0.3996333367       -3.9684298550
 C         6.5734618722        0.2677915403       -3.2924112477
 C         6.1728608319        0.2616816533       -1.8279334458
 C         7.3707955859        0.1182351730       -0.7316362332
 C         7.8185940511       -0.5977342710       -3.5265756947
 C         6.8512960038        1.7092123227       -3.6721071291
 O         4.2058873537        0.1394633390       -3.9522205462
 O         5.0816058024        0.5061966909       -1.4432908802
 C         6.7137685489       -0.5195541162        0.6069571912
 C         6.3860720046       -2.0346739896        0.3532637681
 C         5.6713083676       -3.0179216004        1.3657121694
 C         4.1100474113       -2.7774780582        1.2110001391
 C         3.2399062994       -3.5799067539        0.1672114449
 O         6.2810093651       -2.3855906843       -0.8038689219
 O         3.5493647662       -2.0146219662        2.0338308022
 C         5.9885416367       -4.5348470147        1.0093714080
 C         5.9989826752       -2.6919716778        2.8062078649
 C         1.8487314357       -3.0449517744        0.2564115329
 C         1.7911109636       -1.5291171584       -0.2976747558
 C         0.7827146537       -0.3210230076        0.3793245226
 C         0.0357367501        0.1576709013       -0.8228522364
 C        -1.4349663884        0.0727713969       -0.7281381336
 C        -0.0449573592       -0.9119809338        1.5658108347
 C         1.7886311346        0.8272006574        0.8531643924
 O         2.4175653985       -1.2494551327       -1.2577603430
 O         0.5597039322        0.6551612537       -1.8375213183
 C        -2.1572905185       -0.6643607847       -1.9393377810
 C        -1.8834167402       -2.1245793042       -1.7055795770
 C        -2.9909768841       -3.2454262207       -1.9106115022
 C        -3.3614849332       -3.8660587701       -0.4122028770
 C        -3.6021946066       -5.3767238668       -0.4428564953
 O        -0.8081796811       -2.4852044847       -1.2992798806
 O        -3.4042293194       -3.0375800100        0.4995485726
 C        -4.2745077981       -2.6369275231       -2.6128643889
 C        -2.3518633661       -4.2418424083       -2.8974707134
 C        -4.6189529027       -5.8765637181        0.5520269015
 C        -5.9885108509       -5.1960128785        0.3333887920
 C        -6.8247989198       -5.0236595242        1.6118034257
 C        -5.9529462817       -4.1533982446        2.5969956048
 C        -6.4501143809       -2.7557992770        2.9475408002
 C        -8.0900927715       -4.2123291724        1.2886165521
 C        -7.1697048530       -6.2998598991        2.3712623547
 O        -6.2188342309       -4.6860980757       -0.7524913365
 O        -5.0555921817       -4.6531822592        3.2702785854
 C        -5.4547045975       -2.0709030396        3.9605404037
 C        -5.8136760060       -0.5294319597        4.2178857076
 C        -4.7541616587        0.5647059199        4.9374513180
 C        -3.7527922019        0.9450629606        3.7046757723
 C        -4.0398093117        2.2932282062        2.8777021052
 O        -6.9025895747       -0.1612617127        3.9361703571
 O        -2.7310572052        0.3699852227        3.4912816589
 C        -5.5590616583        1.6777721333        5.4228993729
 C        -4.1662113317       -0.2080991775        6.0823767693
 C        -2.8570073643        2.7969683077        2.1432905923
 C        -3.2427762504        3.6129135244        0.8873736002
 C        -3.1156778438        5.1788336476        0.9412661935
 C        -1.5734244864        5.6750579156        0.6291772199
 C        -0.9788856901        5.1989016632       -0.6784402601
 C        -4.1292170124        5.9005465005       -0.0816678588
 C        -3.3901604105        5.6962024477        2.3916750327
 O        -3.5986595953        3.0895565043       -0.1251905444
 O        -1.0877131819        6.4220524983        1.4030856256
 C         0.5716994742        5.4019675631       -0.7131470981
 C         1.0393999028        5.7109405722       -2.1914925318
 C         2.6178615648        5.6623218031       -2.5445056119
 C         2.8296649039        4.1471485446       -3.0390623580
 C         2.2923131178        3.6456195580       -4.3569638509
 O         0.2883383971        5.6876368594       -3.1403426918
 O         3.3530942785        3.2738837598       -2.3151133706
 C         2.9020167370        6.6315039939       -3.6844867625
 C         3.5424332493        5.7558682554       -1.2567975472
 H         5.6101131466       -2.5480239549       -3.8762071026
 H         4.6092372734       -1.8915580216       -5.3120108074
 H         6.3193990082       -1.6369020949       -5.3861084382
 H         8.1346855343       -0.6335007278       -1.0169666084
 H         7.8596261649        1.0473719173       -0.5681836584
 H         7.6984573988       -1.6378031674       -3.1782117935
 H         8.6121673824       -0.1681645127       -2.8889727594
 H         8.2119074237       -0.4874566897       -4.5330138990
 H         5.8625894210        2.2774313807       -3.7513466529
 H         7.5215342652        2.1324480487       -2.9563528593
 H         7.4050540516        1.7889495869       -4.6926169292
 H         7.4343665326       -0.5336889092        1.4832772753
 H         5.8374500136        0.1237553331        0.9848822588
 H         3.7298144085       -3.3715889686       -0.7495682054
 H         3.3282944197       -4.6493131384        0.4003404241
 H         5.7950581677       -4.6991018865       -0.0303197436
 H         5.3603161714       -5.2811718919        1.5656016826
 H         7.1158029335       -4.5528853539        1.1477973535
 H         6.2174613414       -1.6414534604        3.0982334711
 H         5.0358156373       -2.8303248410        3.4306289653
 H         6.7082501485       -3.4950333998        3.1102820950
 H         1.5706209637       -3.2084955333        1.2764054684
 H         1.1940611296       -3.6581039446       -0.3342803092
 H        -1.9140474240       -0.4080641004        0.1980292237
 H        -1.8522431120        1.1425790177       -0.6375958565
 H        -0.6015936734       -0.0840849762        2.1281920420
 H         0.4548086340       -1.3697962385        2.3626512584
 H        -0.7201439120       -1.6517068269        1.1299699697
 H         2.8654119559        0.4903548594        0.9605503239
 H         1.5876538501        1.7027681083        0.1688035920
 H         1.3814742506        1.1078574339        1.8121510667
 H        -3.1841218068       -0.4153025141       -2.0276660483
 H        -1.6794416572       -0.3203514085       -2.8058825355
 H        -3.9395180035       -5.3217022544       -1.4726385323
 H        -2.7118860756       -5.9724933815       -0.5355123790
 H        -4.8983410657       -2.1225609804       -1.8345628858
 H        -4.8113397208       -3.5584896816       -3.0249841384
 H        -3.9966142781       -2.0638363056       -3.4658782516
 H        -1.4699973177       -4.6855531868       -2.4099771481
 H        -3.1476234833       -4.9789837796       -3.1363048162
 H        -1.9488462151       -3.7031215023       -3.8497785652
 H        -4.3212554768       -5.5618641808        1.5411044578
 H        -4.6659575978       -6.9962768739        0.6686268151
 H        -6.3790078202       -2.1479194980        1.9951211791
 H        -7.4229543587       -2.7773206544        3.3071632701
 H        -8.6269500663       -4.0190683278        2.1435688699
 H        -8.6808628375       -4.7201687348        0.5036311824
 H        -7.8589045623       -3.2238787318        0.9192167460
 H        -6.2213876062       -6.8449519977        2.6059064214
 H        -7.7024645477       -6.0055672515        3.2741984535
 H        -7.7710004640       -6.8897053810        1.7676571713
 H        -5.4050621138       -2.3905965083        4.9721762543
 H        -4.3969707386       -2.2001212461        3.6135428484
 H        -4.8847174761        1.9463413220        2.2445492271
 H        -4.4476698658        2.9581025748        3.6539808887
 H        -6.2583305423        1.8994169892        4.6310542492
 H        -4.9160546159        2.5273200876        5.8932129580
 H        -6.2443496302        1.4052877982        6.2271507721
 H        -3.3785087633       -0.9043711841        5.6933926372
 H        -3.6205304438        0.5075274938        6.7563463405
 H        -4.8699305335       -0.8024100000        6.5504759776
 H        -2.4076357218        1.8938187703        1.6516443144
 H        -2.0827257280        3.2472340374        2.7398022856
 H        -1.3088377451        4.1600596565       -0.8503911597
 H        -1.3746387241        5.6773259769       -1.5666102267
 H        -3.7634528369        5.6208076177       -1.1493224888
 H        -4.0207906152        7.0494795255       -0.0065142928
 H        -5.2070422895        5.6247163894        0.1641688834
 H        -3.2994438129        6.7718252500        2.4865443629
 H        -4.3803533537        5.3737114494        2.7472814716
 H        -2.5925492202        5.2396926311        3.0014252445
 H         0.8238112612        6.3448833319       -0.2046413138
 H         1.2898063548        4.5763641336       -0.3088086382
 H         1.1493881202        3.7039485683       -4.3837163827
 H         2.5776925035        4.2305189199       -5.1911031518
 H         2.5541013158        2.6086512793       -4.5111524466
 H         2.1989297586        6.5791942627       -4.4565030849
 H         3.8964655729        6.5126117896       -4.0570162272
 H         2.9032342430        7.6710933803       -3.2497594216
 H         3.7196229313        6.7593144318       -1.0255672694
 H         3.1252484247        5.2268741581       -0.4459174346
 H         4.4994150326        5.2359215716       -1.4709208730
 Na        2.8488126197        0.8683220042       -1.7788955430
