155

 C         5.4240011486       -2.0321061235       -3.7761832377
 C         5.2520862001       -0.4940358876       -3.7072946381
 C         6.4074133135        0.2437863973       -2.8881574464
 C         5.8607994284        0.4563913183       -1.3736244911
 C         6.7651828376        0.4510166515       -0.1349335948
 C         7.7709036363       -0.4915449876       -2.9674177194
 C         6.5993326968        1.7054062855       -3.3375473249
 O         4.2959301235        0.0219800424       -4.1539493783
 O         4.7256015786        0.8625217260       -1.2527653069
 C         6.5451548589       -0.5922294154        0.9978983939
 C         6.4338606623       -2.0475809561        0.5879012149
 C         5.8409077389       -3.1277032868        1.5228473287
 C         4.3960875669       -2.5266042982        1.4902301589
 C         3.4051502432       -3.1315621011        0.3293687242
 O         6.9779596368       -2.4329694658       -0.4657636838
 O         3.9658286571       -1.5748867396        2.1065471679
 C         6.0391391846       -4.4412650610        0.7767514085
 C         6.4207282235       -3.1959686819        2.9304521999
 C         2.0256112679       -2.4440426805        0.5908229719
 C         1.9031684299       -1.2105815588       -0.2045011595
 C         0.9314008431       -0.0485669996        0.2311565762
 C        -0.0853083743        0.2572726595       -0.9542652851
 C        -1.6442144885        0.2834676850       -0.6846244735
 C         0.2978265596       -0.3807685891        1.5916353726
 C         1.6709451780        1.3230709959        0.6181783796
 O         2.5170662777       -1.1803664942       -1.2780220580
 O         0.4065063886        0.6249910978       -1.9788239853
 C        -2.4302003813       -0.6842726321       -1.6437886663
 C        -2.0553168488       -2.2076734609       -1.6951506230
 C        -3.0647144731       -3.2394193903       -2.1524065187
 C        -3.5485577155       -3.9440714161       -0.7741678411
 C        -3.6523629539       -5.5334672231       -0.8506726358
 O        -0.8948150577       -2.5004343196       -1.4998680152
 O        -3.8194943622       -3.3089281445        0.2290536823
 C        -4.2512406203       -2.7002466403       -2.8764186686
 C        -2.2381508656       -4.2509970261       -3.0596357055
 C        -4.4319609113       -5.9525838556        0.3814618814
 C        -5.9407193901       -5.4629703342        0.3479943602
 C        -6.7340854484       -5.3217955920        1.7020349765
 C        -6.1082687949       -4.2886726899        2.7451724601
 C        -6.3488045098       -2.7047428209        2.5116962263
 C        -8.2403722912       -4.9182443577        1.2918540560
 C        -6.8604882177       -6.7286908231        2.3682127609
 O        -6.5418422225       -5.3876246016       -0.7501567429
 O        -5.4582413372       -4.7057915642        3.6753748350
 C        -5.2882387162       -1.9949789494        3.3572408453
 C        -5.7068357631       -0.4006797232        3.5786782909
 C        -4.6914170938        0.3336231421        4.6267545889
 C        -3.6353604289        0.8851416876        3.5660467799
 C        -4.1150218010        2.0572930022        2.6448258873
 O        -6.6094597823        0.1325019585        3.0342999148
 O        -2.5322272626        0.2789915978        3.4578436483
 C        -5.4165427979        1.3923158318        5.3583688789
 C        -3.9502889805       -0.6431124273        5.4636729230
 C        -2.7688663368        2.7698257885        2.2431678642
 C        -3.0209047064        3.6444744862        0.9777997170
 C        -2.9696812814        5.1955446332        1.1149160949
 C        -1.4789832049        5.6460632533        0.9017549688
 C        -0.9639898748        5.5316495728       -0.5057848915
 C        -3.7494491618        5.8571521277       -0.1323040539
 C        -3.5276412287        5.7130864239        2.4714734272
 O        -3.0383810021        3.1120257985       -0.1024613743
 O        -0.7014047556        5.9032089366        1.7702345950
 C         0.5073057485        5.6642465204       -0.7312395445
 C         0.9160243463        5.8191832688       -2.1765010358
 C         2.3540979293        5.6279016119       -2.5439203465
 C         2.5044234593        4.1290058932       -2.9078127745
 C         2.8798432690        3.6959953776       -4.3184094857
 O         0.0567979025        6.0558467013       -3.0110837899
 O         2.3032262738        3.2999525172       -2.0933521238
 C         2.5407111936        6.4434120927       -3.8339500302
 C         3.3817421371        6.0109339599       -1.3269798262
 H         5.8514747923       -2.3095423340       -2.8463262466
 H         4.5140428201       -2.4270641193       -3.9694035050
 H         6.2137335901       -2.2087321203       -4.5874946296
 H         7.7591755480        0.3043875628       -0.4292363745
 H         6.9775034850        1.4810951584        0.2901264178
 H         7.7082211189       -1.3585474834       -2.3472068480
 H         8.4961931032        0.2618681806       -2.6385069393
 H         7.9350416004       -0.9282883277       -3.9214211115
 H         5.6981120809        2.2303722726       -3.5086495524
 H         6.8781419267        2.3455126658       -2.4387104383
 H         7.4314630434        1.7533592552       -4.0063012573
 H         7.3660518954       -0.4303877792        1.6173191556
 H         5.7891255246       -0.3116238216        1.6684895809
 H         3.8598928308       -2.6356427005       -0.5702629382
 H         3.4897082254       -4.2060013397        0.3355362710
 H         6.1315976452       -4.2234643937       -0.3432034628
 H         5.2996368635       -5.1319618935        1.0815579223
 H         7.0286644566       -4.8609860737        1.1211891050
 H         5.6197519396       -3.0537113302        3.7321115486
 H         7.0888748910       -4.0734117060        2.9700568401
 H         7.0627580495       -2.3371572158        3.0687015444
 H         1.9380626156       -2.4293688565        1.7179966321
 H         1.2306382834       -3.0338938448        0.1005317047
 H        -1.9895909721        0.1274694171        0.2743646612
 H        -1.9148245572        1.3508327488       -0.8690164016
 H        -0.4922382515        0.3124558239        1.8607425458
 H         1.0919179949       -0.6415290638        2.3530238403
 H        -0.3341643938       -1.2451606750        1.4812966452
 H         1.9513157125        1.4250646083        1.7225681514
 H         2.6759298819        1.3557106823        0.0984208288
 H         0.9291733643        2.0425012541        0.3856581495
 H        -3.4956747477       -0.5556222353       -1.4394615376
 H        -2.1679704314       -0.3216199270       -2.6405175058
 H        -4.0202361935       -6.0323273623       -1.7196988163
 H        -2.5574649579       -5.7518323845       -0.7615472296
 H        -4.7699540702       -2.0670588991       -2.1976632328
 H        -4.6208241792       -3.5732642591       -3.2816168375
 H        -3.9709048730       -1.8713449310       -3.5950536049
 H        -1.4155700478       -4.5832747935       -2.4952134308
 H        -2.9061497394       -5.1037401339       -3.3059894561
 H        -1.9886069448       -3.8404648882       -4.0709040228
 H        -4.0544406875       -5.7171620262        1.3984691994
 H        -4.7073258384       -6.9626800313        0.4152460940
 H        -6.2557791441       -2.4725739208        1.4969365873
 H        -7.4073465812       -2.5458400844        2.9028614648
 H        -8.9539476192       -5.0032582174        2.0433662032
 H        -8.5699474797       -5.7760959181        0.5685348603
 H        -8.2478529254       -3.9691021353        0.7809402907
 H        -5.9347694760       -7.2413831877        2.5423968502
 H        -7.3535944167       -6.5547052959        3.3362438756
 H        -7.4995426901       -7.3235492964        1.7234008216
 H        -5.2749757427       -2.5772582353        4.3410771571
 H        -4.3069634646       -2.0958415138        2.9133061655
 H        -4.6455850146        1.5658538317        1.8200944645
 H        -4.7061755931        2.8129896953        3.1532832855
 H        -6.1815492907        1.8255548484        4.6341625713
 H        -4.8696311967        2.2723102746        5.6507717649
 H        -5.9239069336        0.9460002421        6.1543159004
 H        -3.3553078153       -1.1982812321        4.7414875082
 H        -3.4177628970       -0.1686340354        6.2614708791
 H        -4.5920262534       -1.3911093764        5.9903117448
 H        -1.9156826940        2.2718387205        1.8433092910
 H        -2.3681785979        3.3757836991        3.0481350846
 H        -1.1570779313        4.5130763699       -0.9533823430
 H        -1.5511990007        6.2477988610       -1.0932093391
 H        -3.3425524317        5.3196461752       -1.0481122181
 H        -3.3832743848        6.9012270070       -0.2447570155
 H        -4.8632856263        5.6786289908       -0.2384768021
 H        -3.8077609743        6.7706419827        2.2520237563
 H        -4.4863283970        5.1752163542        2.6548015272
 H        -2.9311046064        5.5774485636        3.3258560899
 H         0.8038796248        6.5037968440       -0.0147431007
 H         1.0214317697        4.7446970549       -0.4507118703
 H         2.1022409990        3.9523932978       -4.9786813866
 H         3.8035275441        4.0829083470       -4.7923121720
 H         3.0934643666        2.6147958896       -4.3394852021
 H         1.7201104348        6.2109419605       -4.5494793326
 H         3.4324462340        6.1369363668       -4.3292474144
 H         2.5048450411        7.5380713800       -3.7263435127
 H         2.8012554596        6.7953242558       -0.8098842125
 H         3.3515207387        5.1837157862       -0.5710629603
 H         4.3037123362        6.3035894326       -1.6587142514
 Na        2.6633404816        0.9186444580       -2.4633277124
