155

 C         5.8692951840       -1.0364351920       -4.5413527783
 C         5.2214686776       -0.2002730256       -3.3993265370
 C         6.1375184751        0.9549198513       -2.7156903624
 C         5.8698550713        1.0998778613       -1.2181782394
 C         6.8877060213        0.7105696650       -0.0639822919
 C         7.6115474964        0.6266934171       -3.0847044791
 C         5.6114488134        2.2258347596       -3.3515529638
 O         4.0931431105       -0.3984744448       -3.0630865135
 O         4.7461235685        1.4992777609       -0.8206736808
 C         6.2823814306       -0.1342703538        1.0507338625
 C         6.2438774364       -1.6790977076        0.8437575948
 C         5.7227857726       -2.6344212223        2.0367351125
 C         4.1938211340       -2.3208188834        1.9992912630
 C         3.2883493826       -3.1289510920        1.0105594985
 O         6.5906614046       -2.2090740823       -0.1947104362
 O         3.6092761848       -1.6781641335        2.8137053645
 C         6.1386620575       -4.0324769118        1.5226959783
 C         6.2770447302       -2.4762357512        3.4328663085
 C         1.8495799184       -2.6477131025        1.0801625526
 C         1.5993263644       -1.2274561622        0.5399785105
 C         0.4426604269       -0.3115930021        1.0644262410
 C        -0.4806828721        0.0984804935       -0.1930249307
 C        -2.0213014194       -0.2088335827       -0.1247492653
 C        -0.3029253077       -0.9936011390        2.2127553125
 C         1.0280702515        0.9792751913        1.7196118982
 O         2.2523616816       -0.7903115751       -0.4018376537
 O         0.1257984404        0.6976634641       -1.0655831518
 C        -2.4899312823       -0.7458529044       -1.4880070288
 C        -1.5956089962       -2.0872804283       -1.7176741198
 C        -2.3505054822       -3.3406278944       -2.3200141895
 C        -3.3320028715       -3.9521184856       -1.2667672438
 C        -3.7062663934       -5.3622984262       -1.3707941992
 O        -0.5218681165       -2.2017262071       -1.1310212512
 O        -3.8062363966       -3.2593414028       -0.3789503084
 C        -3.2195786410       -3.0002615115       -3.6291815221
 C        -1.3426441786       -4.4079797801       -2.6737624389
 C        -4.4188201870       -5.8919206215       -0.1347082623
 C        -5.8747280919       -5.7489328424       -0.1957898108
 C        -6.7333186325       -5.8186227874        1.1295463457
 C        -5.9269134343       -4.9688936276        2.1871589079
 C        -6.0339710498       -3.4263322451        2.0591676371
 C        -8.2306280505       -5.3413878364        1.0510473302
 C        -6.6884164773       -7.2431530634        1.6066436550
 O        -6.4099110219       -5.3316466926       -1.2282652718
 O        -5.2598666587       -5.5162879935        3.0647679139
 C        -5.2338565974       -2.6790402393        3.0523466634
 C        -5.1349248655       -1.2051199002        2.7714727452
 C        -4.8834693905       -0.0774284194        3.8848821661
 C        -3.7039790289        0.8150489978        3.5859118640
 C        -3.7473911777        1.6977648259        2.2878240000
 O        -5.2345038108       -0.7056255656        1.6213274950
 O        -2.7057512987        0.7197309799        4.2336748383
 C        -6.3236171516        0.6758204930        4.0548076638
 C        -4.6376626318       -0.7923800964        5.2688145186
 C        -2.7656811849        2.7987696709        2.2873952790
 C        -2.8767506257        3.6195261765        1.0184449021
 C        -2.6376946253        5.2787614921        1.0183153708
 C        -1.1190603302        5.4310883305        0.8438760203
 C        -0.6548141190        5.2940263645       -0.6288563854
 C        -3.5184141537        5.8492000130       -0.0906552021
 C        -3.0438251805        5.9616302265        2.3500078147
 O        -3.2214298550        3.0629176046       -0.0258993358
 O        -0.3080132650        5.4286501793        1.7789065790
 C         0.8355185078        5.7958090398       -0.9279538504
 C         1.0170490221        6.1714036668       -2.4306035626
 C         2.3594218985        5.7124329049       -3.0893810553
 C         2.2972751934        4.1897842774       -3.2796621050
 C         1.2873494143        3.6902538358       -4.2359616875
 O         0.1368996561        6.6988630308       -3.0846890812
 O         2.9009601443        3.4067874160       -2.5254138901
 C         2.5525471115        6.4287770963       -4.5283620961
 C         3.6443188621        6.1537416003       -2.2638215770
 H         6.8338421586       -1.4947651679       -4.1493942713
 H         5.1488386312       -1.7486151870       -4.6560383351
 H         5.9417156823       -0.4066670290       -5.4253561804
 H         7.8151035970        0.1979556434       -0.3400419512
 H         7.0841762900        1.7330391875        0.2217170946
 H         7.8842855309       -0.4055693053       -2.8765476162
 H         8.2465554372        1.3867853351       -2.6478868250
 H         7.7968013900        0.6328784826       -4.1306158545
 H         4.6116101493        2.5176554785       -3.0164509924
 H         6.1272969128        3.1104391088       -3.1090450922
 H         5.6503367335        2.2497250618       -4.4650658135
 H         7.0755957573       -0.0060419150        1.9121348364
 H         5.3077318359        0.3902643733        1.4079382819
 H         3.5899882260       -3.0393906959       -0.0902890284
 H         3.4905814088       -4.1881930866        1.1547125774
 H         5.7829494098       -4.3069269419        0.5123732717
 H         5.9410544654       -4.8862842878        2.2347156671
 H         7.2054855092       -4.0205451022        1.4584585119
 H         5.6230129517       -2.9874235085        4.1319902746
 H         7.2565230837       -2.9083304963        3.4242422756
 H         6.4386858131       -1.4694640441        3.8120772836
 H         1.4193664797       -2.6738731901        2.0913821475
 H         1.2019660162       -3.3646225339        0.6178183045
 H        -2.3313919138       -0.8347379350        0.7352317573
 H        -2.6269820823        0.7793741629       -0.0621593735
 H        -1.1891962886       -0.4110343843        2.4758884315
 H         0.4437702587       -1.0543332834        2.9427530150
 H        -0.6936695499       -2.0431963902        2.0499033129
 H         1.9981752975        0.8477905321        2.1406099402
 H         1.2136347386        1.7075412236        0.9229736513
 H         0.2137220769        1.2463262446        2.4666800402
 H        -3.6370243775       -0.8646814317       -1.5101101631
 H        -2.2426549512        0.0209475750       -2.2701206830
 H        -4.4717196883       -5.5179517681       -2.1376140908
 H        -2.9876947171       -6.1716918103       -1.5857757553
 H        -4.0045125577       -2.2974488422       -3.3056842581
 H        -3.6283621962       -4.0509179679       -3.7767347940
 H        -2.7078523938       -2.4620146390       -4.4537613059
 H        -0.7021978501       -4.7909420116       -1.8807894718
 H        -1.7961793528       -5.3078543770       -2.9958754231
 H        -0.7256209976       -4.1920308797       -3.4453357980
 H        -4.1112963141       -5.3699706654        0.7700059437
 H        -4.1049369328       -6.9204735784       -0.0094268787
 H        -5.6147936446       -3.2089652789        1.0268050033
 H        -7.0888883009       -3.2943046543        2.0960321471
 H        -8.7149473031       -5.6336143005        2.0395921165
 H        -8.7999767095       -6.0421260853        0.3540093326
 H        -8.4376846968       -4.2829546775        0.8849041202
 H        -5.6491946672       -7.5593921798        1.8106157381
 H        -7.2926778443       -7.4916420559        2.4574557786
 H        -6.9832904839       -7.9156246547        0.8136805317
 H        -5.4494830264       -2.8978537469        4.0815480099
 H        -4.2089221441       -3.0746113041        3.0793965612
 H        -3.8303785382        0.9726372942        1.4570502037
 H        -4.7090996773        2.1425563634        2.3482943616
 H        -6.5810619289        1.2436529079        3.2140168186
 H        -6.0607328412        1.4304322335        4.7606591316
 H        -7.0940741581        0.0454516867        4.5384313416
 H        -3.6777142366       -1.3132534288        5.2406538883
 H        -4.6154724335        0.0816653709        5.9633878544
 H        -5.4200423910       -1.4352631998        5.6183195763
 H        -1.8022265058        2.2835109815        2.2668966528
 H        -2.7165074111        3.4767890821        3.1269736305
 H        -0.8102525478        4.2388405879       -1.0639680563
 H        -1.3414225628        5.8259935698       -1.2088355402
 H        -3.8574163638        5.3933049728       -1.0027121821
 H        -2.9847359944        6.7249543040       -0.5469045727
 H        -4.4537737388        6.2656934319        0.3516003887
 H        -3.1164690049        7.0163348683        2.1990261776
 H        -4.0198470594        5.6366247555        2.7145630909
 H        -2.2914154917        5.6481603216        3.1453370985
 H         1.1195214855        6.5506554100       -0.2152370409
 H         1.4956577053        4.9396475225       -0.7542556793
 H         0.3761486198        4.3556759402       -4.2355694882
 H         1.5802984825        3.7399990802       -5.2529279263
 H         0.9226545668        2.7104613950       -3.9390776604
 H         1.9885817393        6.0547015316       -5.3825567639
 H         3.6096407434        6.2742806590       -4.8922972657
 H         2.2750589218        7.4523080103       -4.3886874571
 H         3.8459626626        7.2391190135       -2.0754723659
 H         3.5769059680        5.7758916248       -1.2460839507
 H         4.5236667769        5.6889566083       -2.8564651883
 Na        2.5271328655        1.3036901642       -1.4588101552
