155

 C       -10.3728853350       -3.4005992037        1.8542284426
 C        -9.9574926727       -4.9333305921        1.6008094828
 C        -9.2557131957       -5.8818090171        2.6899226670
 C        -7.5997300540       -5.7828481879        2.4769097592
 C        -7.2033292215       -5.0761328732        1.1502584713
 C        -9.5322835780       -5.3507378036        4.1076679419
 C        -9.7232458764       -7.2673217076        2.3408622636
 O       -10.3404628601       -5.3094934368        0.4845198092
 O        -6.8653031695       -6.3259563545        3.2367095573
 C        -6.7252763732       -3.6021014220        1.4397750746
 C        -5.3062659779       -3.6330654963        1.8178985731
 C        -4.9069393491       -2.5586314809        2.8498719274
 C        -4.5799184300       -1.1519832142        2.1894893114
 C        -3.1821797189       -0.8787469864        1.6028746442
 O        -4.4045172993       -4.3376011342        1.3335005020
 O        -5.4034393018       -0.2519416158        2.1753206922
 C        -5.9742960670       -2.1906182453        4.0259281747
 C        -3.6926500795       -3.0829210770        3.6478888143
 C        -3.3202433549       -0.1395521545        0.2325004457
 C        -2.0135316906        0.6692528403       -0.0814244465
 C        -1.6547732855        1.1931077061       -1.4821342175
 C        -1.8128118616        2.8402354859       -1.0434305639
 C        -3.1067913409        3.6059653512       -1.4223819873
 C        -0.1151761657        0.9303956663       -1.7645766794
 C        -2.4207339008        0.7616640828       -2.6442433466
 O        -1.2632907199        0.8233906239        0.9146147835
 O        -0.9738537058        3.2248522922       -0.2554157150
 C        -3.2015361140        4.9906480312       -0.7905765288
 C        -3.9828534119        4.7942799043        0.5085220649
 C        -3.7985032763        5.6441755238        1.7347655877
 C        -3.0252803642        5.0066606631        2.9525965476
 C        -3.3983459108        3.5378592562        3.4047593632
 O        -4.7975360870        3.8648469615        0.5694781037
 O        -2.2763280111        5.6485487226        3.6691893364
 C        -3.1645177422        7.0224550231        1.4224004953
 C        -5.2405563658        5.9388885116        2.2915833569
 C        -2.4597664661        3.0093487349        4.5360074453
 C        -1.0692286133        2.6335990748        4.1210997711
 C        -0.2457818632        1.6423171825        5.1580091801
 C         1.1847512379        1.4937621948        4.5828768401
 C         2.0955209120        2.6850899745        4.5343792392
 C        -0.2692919967        2.3229980448        6.5378965225
 C        -0.9843344575        0.2671617385        5.2142241042
 O        -0.5951114707        3.0087845672        3.0708805280
 O         1.5963352177        0.4160358553        4.1621108829
 C         3.3650917261        2.4971654127        3.7595655682
 C         3.2421854300        2.8430343370        2.2286535913
 C         4.3481511711        2.2421840489        1.0898987401
 C         3.5337203442        1.0938404803        0.2549395428
 C         4.5652197293        0.2813605188       -0.6567293499
 O         2.3471532429        3.5529227475        1.8915225787
 O         2.3867021073        0.8353783652        0.3542740045
 C         4.8444701014        3.4235765931        0.2225774621
 C         5.6878059719        1.7809667507        1.7943583242
 C         4.0885325341       -0.6816130523       -1.8765663738
 C         5.3600495330       -1.1845932161       -2.5124716915
 C         5.2101033409       -2.0617538451       -3.8004928876
 C         5.8162297584       -1.0708588640       -4.9183677790
 C         7.3310087410       -0.9566177977       -5.0584773233
 C         6.0917047487       -3.3181453410       -3.7762319761
 C         3.7398378319       -2.3889178801       -4.0316790312
 O         6.4904063681       -0.7742850444       -2.2281731935
 O         4.9922890487       -0.3296260241       -5.3864380180
 C         7.7556058693       -1.6133874571       -6.3774645075
 C         7.5702806193       -0.8841798288       -7.7065646797
 C         7.4088491554       -1.7240722671       -9.1979851053
 C         8.6356299646       -2.6350961487       -9.2356479322
 C         9.8970983786       -2.3406909893       -9.9806131714
 O         7.7759169171        0.2951736199       -7.8398401841
 O         8.6371444653       -3.6184969061       -8.4499542765
 C         6.0296560034       -2.4162374801       -9.1568838409
 C         7.4902657818       -0.7091425292      -10.3989457001
 H       -10.3381179293       -2.9896897852        2.8475782271
 H        -9.7180417350       -2.6915952575        1.3442694849
 H       -11.3389463751       -3.2213745186        1.4269336070
 H        -6.3151762721       -5.6111876301        0.8639055504
 H        -8.1169345378       -5.0830570198        0.5061620970
 H       -10.4536129732       -4.7044716362        4.1701348908
 H        -8.6693165658       -4.8218282881        4.4582608791
 H        -9.7573052153       -6.1877774279        4.7440378740
 H       -10.8715497393       -7.2128565134        2.3061171212
 H        -9.5420599980       -7.6043479336        1.3800039013
 H        -9.4477583569       -8.1076341905        3.0332748092
 H        -6.8509061166       -2.9866675757        0.5621065350
 H        -7.2521487508       -2.9613894644        2.2390324378
 H        -2.6481689637       -0.2634232287        2.3674772840
 H        -2.6499204562       -1.7817228152        1.4423190821
 H        -5.5538484166       -1.3176309029        4.5067793247
 H        -6.0896650245       -3.0874687904        4.7080018950
 H        -6.9822640526       -2.0185078419        3.6966827600
 H        -3.9024929159       -4.1596089659        3.9109012952
 H        -2.8240730124       -3.2028041003        3.0069083176
 H        -3.5452558594       -2.3748882663        4.4073941389
 H        -4.2443241436        0.5257507565        0.4645996328
 H        -3.7131959352       -0.7944288160       -0.6436294472
 H        -3.1990216587        3.6289825155       -2.5314828415
 H        -3.8744805669        2.8299733851       -1.0114421005
 H         0.3728737661        1.5579227898       -1.1288820729
 H         0.1179913306        1.2592239031       -2.8084652106
 H         0.1905827626       -0.1078146990       -1.5727007012
 H        -2.1023246972       -0.2407718282       -3.0091055768
 H        -3.4424165248        0.4994383370       -2.3850154251
 H        -2.3469523037        1.5111941616       -3.4479498730
 H        -2.2153935358        5.5201084580       -0.7197496756
 H        -3.7958757929        5.5064974041       -1.4510376301
 H        -4.4192907795        3.6488326358        3.8351412106
 H        -3.3811862524        2.8577870931        2.5126063167
 H        -2.0727695465        6.9897182576        1.4386424097
 H        -3.5340198092        7.8122237392        2.0396193173
 H        -3.5015187127        7.3033571452        0.4494120491
 H        -5.7828031444        6.6119526709        1.6168830094
 H        -5.7953527358        4.9706134622        2.3365956223
 H        -5.2766655623        6.3221202965        3.3209803127
 H        -2.9400300333        2.1007399367        4.9077443566
 H        -2.4825791787        3.7411909119        5.4239044627
 H         1.5097751130        3.5326841768        4.0216693033
 H         2.3497430089        3.0411726121        5.5160970200
 H         0.5710899416        3.0368496346        6.5984059792
 H        -0.0058828267        1.5998475949        7.3176099547
 H        -1.3470514374        2.6428173127        6.7285832161
 H        -0.3500824292       -0.5561704691        5.3303673379
 H        -1.6272125906        0.2149012721        6.1347204169
 H        -1.5727927498        0.0796704623        4.3158164080
 H         4.1812231841        3.1544257221        4.1977850360
 H         3.6172615241        1.4445211699        3.8804601539
 H         5.3378258476        0.9086785594       -0.9964195774
 H         5.1109702452       -0.4824556552       -0.1109758086
 H         5.5176079754        4.1321708491        0.7255764952
 H         4.1115510113        4.0050641733       -0.2890977445
 H         5.3256930208        3.0335609854       -0.6816640246
 H         6.4653222069        1.7792499657        0.9553074590
 H         5.8968647773        2.3580018959        2.6335409094
 H         5.5560933874        0.7207144902        2.1809294080
 H         3.5334900638       -0.1630030925       -2.7032158924
 H         3.6715798273       -1.5810855322       -1.4837391124
 H         7.6411064978        0.0301311204       -4.8793415404
 H         7.7406501655       -1.5404348553       -4.1999287541
 H         7.1641703968       -3.1068295332       -3.5704261689
 H         5.9151648751       -3.8493184637       -4.6498384247
 H         5.8171043972       -3.9938373616       -3.0130261407
 H         3.2875385330       -1.7212209669       -4.7670157308
 H         3.7792241556       -3.3190716899       -4.5801383006
 H         3.2754220954       -2.6212005239       -3.0919756234
 H         8.7737547051       -1.9335967672       -6.2524447085
 H         7.1867007437       -2.5115094934       -6.4763903151
 H        10.5188342531       -1.5204642618       -9.6253915964
 H        10.6981376579       -3.1079654453      -10.0480417806
 H         9.5532916110       -2.1627639831      -10.9947022175
 H         5.1642721248       -1.8598339175       -8.7744200005
 H         5.9876860775       -3.3054680434       -8.4169106542
 H         5.7289990862       -2.7447625796      -10.1593575468
 H         7.6653132181       -0.9720602464      -11.4537936845
 H         6.5303846492       -0.2581687282      -10.5267664662
 H         8.1915070104       -0.0130915220      -10.0466383415
 Na        0.6177134504        2.1585688758        1.3359479546
