155

 C         5.6972511231       -0.9867117783       -4.4325346763
 C         5.1746779699       -0.0092763540       -3.3690314845
 C         6.1266815620        1.0709972837       -2.6442941483
 C         5.8906695752        0.9737392404       -1.1029875715
 C         6.9729868426        0.6122339939       -0.1687902161
 C         7.6441461487        0.9312463649       -2.9994807562
 C         5.7629453175        2.3840615776       -3.2359953844
 O         3.9613584089       -0.0741535678       -3.1569417851
 O         4.7359365330        1.1707171837       -0.7522136043
 C         6.3724022684       -0.1305920323        1.1165961063
 C         6.1342764194       -1.5944121109        0.7999978320
 C         5.7240042087       -2.5511577439        1.9914367192
 C         4.0972605162       -2.3777905309        2.0778717159
 C         3.2655215591       -2.9808277295        0.9808564103
 O         6.2054855923       -1.9648839057       -0.3456749707
 O         3.7196790769       -1.6679164754        3.0145538348
 C         5.9854499561       -4.0847626764        1.7420877580
 C         6.3124482826       -1.9663519471        3.3742729212
 C         1.8121767540       -2.6607408506        1.1298874385
 C         1.5806993967       -1.2530459601        0.5316147198
 C         0.4223403996       -0.3541292081        1.0831643738
 C        -0.4180194307        0.1366944889       -0.1762647882
 C        -1.9934974898       -0.0380011823       -0.1725462392
 C        -0.4521105637       -1.0936078599        2.1041907117
 C         1.1082469900        0.8541072679        1.7520619355
 O         2.3329273461       -0.8117023209       -0.3092441023
 O         0.2195351841        0.6943435450       -1.0762692192
 C        -2.3694059727       -0.8940796122       -1.4384131133
 C        -1.5577824876       -2.1700570242       -1.5724843715
 C        -2.2174931992       -3.4342031658       -2.3373628879
 C        -3.2051853182       -3.9974253816       -1.2783563197
 C        -3.5835583222       -5.4575501183       -1.4757176659
 O        -0.4234061389       -2.3297883633       -1.2108517366
 O        -3.6122588910       -3.3460540332       -0.3417747376
 C        -3.0509900419       -2.9205899043       -3.4831090629
 C        -1.0917412004       -4.2781363617       -2.8185775418
 C        -4.4122363144       -6.2053688021       -0.3115871766
 C        -5.9760607837       -5.7816237680       -0.2316596098
 C        -6.6921241635       -5.8319967907        1.0951837827
 C        -5.7613870732       -4.9375589534        2.0727469451
 C        -5.7380272653       -3.4194227457        1.8677806180
 C        -8.0493283765       -5.1674020771        0.7819642307
 C        -6.7783024898       -7.2589544304        1.4793188471
 O        -6.4685488536       -5.2693462116       -1.2163635911
 O        -5.1836656288       -5.4875442283        2.9658595763
 C        -5.3689675920       -2.6867012626        3.1490153916
 C        -5.1517091289       -1.1762838053        2.8111699515
 C        -5.0588207855       -0.0919539556        3.9753888757
 C        -3.7898275922        0.7549275795        3.5797170529
 C        -4.0905423865        1.8339459885        2.4161053708
 O        -5.1196105549       -0.8197659525        1.6723133194
 O        -2.6731434974        0.5268579243        4.1121800956
 C        -6.3876729488        0.6365324967        3.9554738255
 C        -4.8355028205       -0.7656862274        5.3724777428
 C        -2.9684806929        2.9023329618        2.4173498715
 C        -2.9655396201        3.7209389201        1.0429637968
 C        -2.7390869980        5.3142653884        1.0316828187
 C        -1.1624343383        5.3647575540        0.7331979788
 C        -0.5154323021        5.4104223304       -0.6635558111
 C        -3.5606694151        5.8873803937       -0.0903947902
 C        -3.0608554773        5.8969786599        2.4141671247
 O        -3.0284773505        3.1798032143       -0.0108810137
 O        -0.4771973511        5.3615480434        1.7554172780
 C         0.9776006262        5.7284202233       -0.8596342226
 C         1.1757211186        6.1669028014       -2.3477471103
 C         2.4184607192        5.6439329740       -3.2749244289
 C         2.1900056423        4.1374422150       -3.1486047066
 C         1.1165632638        3.4001087117       -4.0185265347
 O         0.2594170771        6.5880512937       -2.9981896094
 O         2.6019976912        3.5054294660       -2.1905144976
 C         2.3095185918        6.3504497161       -4.6598820622
 C         3.7505287375        5.9366774503       -2.6009325539
 H         6.4392104860       -1.5663658893       -3.9701567938
 H         4.7707818595       -1.6243428599       -4.7322123773
 H         6.0459863883       -0.3455902826       -5.2387446685
 H         7.6108087357       -0.1048272446       -0.6693386330
 H         7.6055405318        1.5228836292        0.0585604145
 H         8.0306274329       -0.0679362652       -2.8908865256
 H         8.2470739357        1.7426885131       -2.5806082705
 H         7.8193471243        1.0409520256       -4.0903070630
 H         4.9354720972        2.8237579083       -2.7309312357
 H         6.4434274119        3.2245290044       -3.1487890202
 H         5.5605391877        2.3518044093       -4.2766646842
 H         7.0480894122        0.0887415020        1.8972301804
 H         5.4301964165        0.2948484104        1.4167679667
 H         3.5002959603       -2.6937788057       -0.0017423253
 H         3.5891949649       -4.0283951112        1.0107797071
 H         5.7446386952       -4.3736483232        0.7716829167
 H         5.5034773506       -4.6657375864        2.5078166956
 H         7.0152264264       -4.4387645019        1.8405193406
 H         6.0948631939       -2.5514748768        4.2324945234
 H         7.4093180118       -1.8533408921        3.4116032699
 H         5.7303992140       -1.0557390433        3.5552406722
 H         1.4065495593       -2.7460494662        2.1296279909
 H         1.2394300914       -3.4443379552        0.6036025355
 H        -2.3179764518       -0.5994998245        0.7348883914
 H        -2.5436269666        0.8518068756       -0.1840486758
 H        -1.2503275747       -0.5081899059        2.5490307605
 H         0.2442524046       -1.5501372444        2.8406468050
 H        -0.9820502685       -1.8662172723        1.6573779172
 H         1.4534572229        0.4690487802        2.7728064836
 H         2.0617617447        0.9793085182        1.2515825236
 H         0.4849991826        1.6429199324        1.9701389718
 H        -3.3929402847       -1.1525809286       -1.4866347576
 H        -2.1591635220       -0.4010116421       -2.3808326096
 H        -4.0615493155       -5.6615885353       -2.4475779429
 H        -2.7021792250       -6.0702498495       -1.5549114674
 H        -3.9775906495       -2.4317791256       -3.2195628006
 H        -3.2673140364       -3.7016089780       -4.1351502629
 H        -2.5129740600       -2.0366283141       -3.7638124983
 H        -0.5853875911       -4.7581484604       -1.9984700586
 H        -1.2722110697       -5.1412253395       -3.4540553221
 H        -0.2439870448       -3.7050987073       -3.3718136535
 H        -3.7926256969       -5.9852759168        0.6035111392
 H        -4.2848391402       -7.3136488249       -0.4076273945
 H        -4.9367136636       -3.2852062669        1.2109553504
 H        -6.7431572676       -3.1521082949        1.4261252117
 H        -8.5265743447       -4.7717889663        1.6520087950
 H        -8.6968719561       -5.8969965558        0.4726408227
 H        -7.9924652299       -4.4490676387       -0.1079903087
 H        -5.9669864049       -7.9469564483        1.2737617031
 H        -6.8845563554       -7.3012453835        2.5979347369
 H        -7.6885915054       -7.7212533843        1.1087415321
 H        -6.0508531317       -2.8493740067        3.9996798959
 H        -4.5383836757       -3.1360142726        3.6774582143
 H        -4.1561376376        1.0817330661        1.6277601076
 H        -5.0785529275        2.3892878895        2.4900644298
 H        -6.4839150591        1.0282071911        2.9287849989
 H        -6.3948349161        1.6520869634        4.4710251377
 H        -7.0886890534       -0.0680005968        4.3078540548
 H        -3.8800520891       -1.2934716853        5.4272867570
 H        -4.8177373920        0.0165175810        6.1083522288
 H        -5.6735579059       -1.4133230313        5.6483944421
 H        -1.9431430679        2.5084623223        2.6348187861
 H        -3.0740405134        3.7152431873        3.1451159332
 H        -0.7109388999        4.4747294224       -1.1353127573
 H        -1.1154169860        6.0459870027       -1.3819476681
 H        -3.1094494714        5.4731914708       -0.9523437483
 H        -3.6502308078        6.9209675648       -0.3248120937
 H        -4.5594561259        5.5845173672       -0.1170873848
 H        -3.0326274664        7.0010381178        2.2367590666
 H        -4.1083234997        5.6968904492        2.6826255439
 H        -2.4557778382        5.6261108118        3.2115371062
 H         1.1166756733        6.6623007301       -0.2843855869
 H         1.7628464061        5.0238315961       -0.5671180990
 H         0.2915846240        4.0735620630       -4.1060733881
 H         1.3925096501        3.3183105169       -5.1040543485
 H         0.7279741993        2.4632635749       -3.6141372416
 H         1.5406144561        5.8842100855       -5.2952134818
 H         3.1854831608        6.1470324272       -5.1963227622
 H         2.0299325838        7.4413870072       -4.5744888010
 H         3.8051536529        6.9857255347       -2.4257146470
 H         3.7526242291        5.5910523292       -1.5747189676
 H         4.5739984395        5.7399702921       -3.2422917792
 Na        2.6043161141        1.1397346182       -1.5611054294
