155

 C         5.1758614584       -0.7386623167       -3.6589565775
 C         4.8847470281        0.6752379669       -3.1449694038
 C         6.0815030413        1.5062517941       -2.5291983135
 C         6.0133367499        1.0441363923       -0.9988124674
 C         7.2986908042        0.4547255650       -0.3481146171
 C         7.3906116473        1.1100277006       -3.2827318074
 C         5.7258390439        3.0821120515       -2.5990237184
 O         3.6869221893        1.0365586830       -3.0090666267
 O         4.9769172197        1.1508636871       -0.3470600646
 C         6.9422180439       -0.3080751471        0.9510362291
 C         6.1361230790       -1.6396846573        0.8797051320
 C         5.6485010896       -2.2017867898        2.3027240119
 C         4.0097247781       -2.1849157396        2.1727177372
 C         3.1769965403       -3.2969880925        1.5299790636
 O         5.8939841323       -2.1903850425       -0.1871788475
 O         3.4667026603       -1.3220227740        2.8421597256
 C         6.1302168857       -3.6147383128        2.4353566713
 C         6.2136748508       -1.3410065363        3.5301779308
 C         1.7727668745       -2.7058363225        1.5555104211
 C         1.7588594062       -1.4197973830        0.7163680881
 C         0.6484456344       -0.3703024790        0.9935633473
 C        -0.2531311687       -0.1182112689       -0.3202921655
 C        -1.7633781016       -0.3409211555       -0.3957626416
 C        -0.3491836215       -0.8597900381        2.1196877911
 C         1.2522433636        0.9424669123        1.4564789868
 O         2.5380956884       -1.0976476595       -0.2003231626
 O         0.3125501658        0.3545708287       -1.2808126400
 C        -2.2614532311       -1.2098314142       -1.5802834421
 C        -1.2746498616       -2.4318194238       -1.6607487670
 C        -1.6820244040       -3.6176801197       -2.5258367988
 C        -2.4115905252       -4.5722141317       -1.4187478428
 C        -3.1617069134       -5.8337212365       -2.0361401303
 O        -0.3700931704       -2.4981934990       -0.8216449540
 O        -2.4868685317       -4.4277248365       -0.2312534384
 C        -2.7361674386       -3.3049184188       -3.5283370243
 C        -0.4851718668       -4.3659571642       -3.2036982228
 C        -4.1427007220       -6.4936590081       -0.9680026053
 C        -5.3211761372       -5.5480716050       -0.7757004028
 C        -6.3112613252       -5.7754804215        0.4317442914
 C        -5.8299982216       -4.8636277134        1.6097680165
 C        -5.9276131457       -3.3600745267        1.3008794980
 C        -7.7479677832       -5.3140344082       -0.0775523766
 C        -6.3473910921       -7.2082321598        0.9419756292
 O        -5.4088625537       -4.4604701383       -1.3478458201
 O        -5.5694807844       -5.3675546936        2.6914931921
 C        -5.6662068832       -2.4915205911        2.5530209148
 C        -5.0486276470       -1.0478841106        2.2407949315
 C        -5.1657107713       -0.1258288917        3.5274899520
 C        -4.0776150710        0.9354950062        3.6028564714
 C        -4.3732598551        2.3432135726        3.0658122547
 O        -4.7329914164       -0.6079353441        1.1917818485
 O        -2.9600126973        0.7335967804        4.1257494851
 C        -6.6461300954        0.4948545123        3.4829005461
 C        -5.0670901314       -0.9412301345        4.8414179993
 C        -3.2005740213        3.3031325103        3.1606157564
 C        -3.0218277567        3.9057442310        1.6871541705
 C        -2.8042640021        5.4369144503        1.3446388374
 C        -1.3355133129        5.5964222964        0.8079668756
 C        -1.1673830218        5.7142948795       -0.7328119987
 C        -4.0317809114        5.7655315599        0.3729995151
 C        -2.8744256051        6.4980964249        2.4869632904
 O        -3.1055530707        3.1394768658        0.7226178991
 O        -0.3669468191        5.5425323557        1.5788478928
 C         0.3266986097        5.7690221641       -1.0373070005
 C         0.7340789138        6.0135814360       -2.4526605312
 C         1.7611386073        4.9899735343       -3.1398821463
 C         1.7016613174        3.5738763672       -2.6789187659
 C         0.7631940584        2.6679267699       -3.4698886280
 O         0.2564241490        6.9467094391       -3.0605639008
 O         2.4529251578        3.2477597184       -1.7348127387
 C         1.5117988465        5.0376578374       -4.7561655498
 C         3.1760437288        5.6359167553       -2.7901700924
 H         5.6664612505       -1.2024223766       -2.8821898385
 H         4.1581638534       -1.1927606191       -3.8765398299
 H         5.8075007697       -0.6403342172       -4.5458780433
 H         7.6213786662       -0.2091964856       -1.1812147013
 H         8.1517438235        1.1031528888       -0.2079345737
 H         7.4284789841       -0.0048748600       -3.2200423582
 H         8.2856915365        1.4623706575       -2.7934169756
 H         7.3917594039        1.3265010467       -4.4071715804
 H         4.6913396412        3.1091346327       -2.8038064491
 H         5.9679657748        3.7901615366       -1.7729541452
 H         6.0667436947        3.6417053549       -3.3892555893
 H         7.8376862306       -0.5774980362        1.3496952967
 H         6.6004254812        0.3167427187        1.7389835320
 H         3.5450496296       -3.5715773796        0.5436991969
 H         3.1001281799       -4.0778901870        2.2374336663
 H         5.6073549799       -4.1508355597        1.6790803836
 H         5.7740487822       -4.1179958194        3.2573688688
 H         7.2214637095       -3.7129151167        2.3975275149
 H         5.5862392470       -1.6195982439        4.3029627637
 H         7.2523458162       -1.5115660472        3.7115334897
 H         6.1473138848       -0.2997497735        3.3621154163
 H         1.5931586654       -2.5861656880        2.6086136123
 H         0.9334557235       -3.2085697628        0.9829181661
 H        -2.1848399012       -0.8664681465        0.5563020901
 H        -2.2328887636        0.5986181933       -0.4248494329
 H        -1.1476064031       -0.1845648503        2.2581815937
 H         0.0955903104       -1.2124200558        3.0745788936
 H        -0.6868998577       -1.8282281825        1.8353179505
 H         1.5085599374        0.7141963039        2.5076198392
 H         2.1782421151        1.3639667535        1.0758090348
 H         0.5546642066        1.7317407392        1.2762143648
 H        -3.2660921754       -1.5583887337       -1.3660661397
 H        -2.3243804556       -0.7091571067       -2.5047181433
 H        -3.7194745691       -5.7606483801       -2.9877755785
 H        -2.4577665760       -6.6350515935       -2.2648538575
 H        -3.5673373590       -2.8312665049       -3.0948763286
 H        -2.9492879874       -4.1660008100       -4.1039947106
 H        -2.3790034497       -2.8212312190       -4.4054250917
 H         0.2958925622       -4.5337841078       -2.4722591040
 H        -0.7757049967       -5.3506370049       -3.6471866371
 H         0.0842932798       -3.7434808289       -4.0101218079
 H        -3.4988022643       -6.6079900265       -0.1134300174
 H        -4.3727637471       -7.5732906604       -1.2761727330
 H        -5.3052142005       -3.2819980471        0.3517536699
 H        -6.8725713445       -3.1652164805        0.9345523016
 H        -8.4261755043       -4.9976432585        0.6842308682
 H        -8.1534461032       -6.1867728797       -0.4563785996
 H        -7.8144419912       -4.3786181161       -0.6988961444
 H        -5.3721425981       -7.6162426667        1.1812966466
 H        -6.9212192933       -7.1578702558        1.8657627671
 H        -6.8782790811       -7.9838617618        0.2826898274
 H        -6.6482641233       -2.4010336228        3.0111412125
 H        -4.8634954630       -3.0204435397        3.1119186687
 H        -4.6055381017        2.0969342171        1.9753650105
 H        -5.2559296979        2.7671440301        3.5981774620
 H        -6.9564751439        1.0527584765        2.5532802756
 H        -6.8532125305        0.8242500484        4.4999394483
 H        -7.3871298268       -0.3127658879        3.4263571142
 H        -4.2504764876       -1.5934623943        4.9276441174
 H        -5.1387146892       -0.3791443586        5.7107024147
 H        -5.9605730404       -1.6334938434        4.8584044072
 H        -2.3203948986        2.6465844187        3.2737983192
 H        -3.2341691332        4.0481660849        4.0036497670
 H        -1.6965678013        4.9674631446       -1.3403980989
 H        -1.6189023427        6.7498478578       -0.8340601032
 H        -4.3702063652        4.9759629022       -0.2763377434
 H        -3.7484362660        6.5251390107       -0.2671038206
 H        -4.9215908520        6.0154979804        0.9320015221
 H        -2.8226938533        7.4978386588        2.0544033547
 H        -3.8137609794        6.5005585034        3.0494529378
 H        -2.0717031674        6.2513214648        3.1911783907
 H         0.7642219987        6.5466257280       -0.3741625306
 H         0.6600466125        4.8095926852       -0.6587432727
 H        -0.0590860718        3.2556584072       -3.7970453632
 H         1.3685713889        2.2743524495       -4.3196893129
 H         0.3974110595        1.7591873637       -2.9716986370
 H         0.4128293374        5.1468643954       -4.8784310642
 H         1.8930975513        4.1246983048       -5.2332474049
 H         2.0257329555        5.9175831335       -5.1846254140
 H         3.1635110045        6.6787250260       -3.0247454639
 H         3.4596256308        5.4572979518       -1.7415074542
 H         3.9930065291        5.1217202074       -3.1464985558
 Na        2.5317805619        1.0008548773       -1.1465092980
