155

 C         5.0794967559       -0.8679030739       -3.7557400006
 C         4.8053967558        0.5697814748       -3.1499404811
 C         6.0608253069        1.4037512562       -2.4527152931
 C         6.0119307098        0.9649462691       -0.9714387493
 C         7.2075841760        0.2510909759       -0.3298463930
 C         7.4084561278        1.1794384041       -3.1451940390
 C         5.6275355704        2.8836205551       -2.6375908899
 O         3.7474098550        1.0728461870       -3.2795564543
 O         5.0458762390        1.2069325764       -0.3034535615
 C         6.8684500709       -0.2612745343        1.0837249468
 C         6.1830361878       -1.6787051900        1.0156176588
 C         5.6952143786       -2.2915096963        2.4229434844
 C         4.1543227781       -2.0099357628        2.2219107937
 C         3.2900293087       -3.1006516540        1.6088915146
 O         6.1280690362       -2.3319808635       -0.0372936815
 O         3.6524995410       -1.0216501456        2.7374080728
 C         6.2077975800       -3.7464446536        2.5404345873
 C         6.1565772946       -1.4421599262        3.6779703279
 C         1.7616444995       -2.8716450364        1.3950733138
 C         1.7240247722       -1.3486919762        0.8529562457
 C         0.5556029384       -0.4265534415        1.1932031045
 C        -0.3083545666       -0.1110106891       -0.2062845325
 C        -1.8719973728       -0.3060614489       -0.3201620342
 C        -0.4251191951       -0.8325446136        2.2253129911
 C         1.1262392979        0.9235602333        1.6001997395
 O         2.5911981596       -1.0394341177        0.0692116320
 O         0.2497185863        0.4608592403       -1.1420971515
 C        -2.2190896839       -1.3131805576       -1.4189045049
 C        -1.3061022533       -2.5674956422       -1.5989083913
 C        -1.7310695941       -3.7303812803       -2.5476720253
 C        -2.4627133020       -4.8118898801       -1.5655285728
 C        -3.0815586853       -6.0781293429       -2.0902651709
 O        -0.2229520739       -2.6432207935       -1.0689130693
 O        -2.2449308691       -4.5806626286       -0.3713021195
 C        -2.6419505577       -3.2964686131       -3.6972765084
 C        -0.4746096451       -4.4065695725       -3.0788618843
 C        -4.1492848006       -6.6133686308       -1.0643667597
 C        -5.1555534062       -5.5154813525       -0.8051972294
 C        -6.1796582643       -5.7859580825        0.2716603434
 C        -5.9532302434       -4.6971712543        1.4383156606
 C        -5.8409574398       -3.1696788404        1.1894264268
 C        -7.5569074705       -5.4644372569       -0.3952251550
 C        -6.2607497787       -7.2791763236        0.7551747145
 O        -5.1868188934       -4.4992231645       -1.4861013450
 O        -5.7496318164       -5.1328907888        2.5294153625
 C        -5.5462023686       -2.4750262111        2.5157822956
 C        -5.0883142508       -1.0379977067        2.3277983058
 C        -5.2220503388       -0.0997847742        3.5851120337
 C        -4.0322084790        1.0475002698        3.5783983771
 C        -4.4517660719        2.4076641533        3.0174497760
 O        -4.6402709722       -0.5962591363        1.2575837084
 O        -3.0295032045        0.7860962038        4.1212662132
 C        -6.5908704096        0.5256497163        3.4381910877
 C        -5.0308517924       -0.8999487545        4.8548063547
 C        -3.2940853230        3.3900316253        3.0805142725
 C        -3.1167244358        3.9649114923        1.6154328402
 C        -2.8631524488        5.5241304763        1.4378705413
 C        -1.3360916884        5.6343872072        0.9095551361
 C        -1.2241335690        5.5891218437       -0.6445900303
 C        -3.8600749279        6.0369336282        0.3472299523
 C        -3.0433534243        6.2956665747        2.8028549168
 O        -3.0430994724        3.1874213262        0.6987402656
 O        -0.4060483437        5.5593030507        1.6307151759
 C         0.2842464654        5.7271679929       -1.0066997037
 C         0.5190859948        6.0316892415       -2.5339895988
 C         1.6853019006        5.1128943978       -3.2530011024
 C         1.5892993176        3.6352560650       -2.7499711707
 C         0.5934760293        2.6376308683       -3.3629910447
 O        -0.1541039369        6.8032047127       -3.1571708023
 O         2.3390740015        3.3229598054       -1.8649535160
 C         1.5090280141        5.2676440625       -4.8064259858
 C         2.9342603905        5.8090240065       -2.7937725210
 H         5.5470962173       -1.5030515650       -2.9619990408
 H         4.1363242189       -1.1941154102       -4.0911533440
 H         5.7312660497       -0.7003936249       -4.5871427080
 H         7.6748339985       -0.4475481021       -1.0223952747
 H         7.9563268926        1.0846187095       -0.2182491411
 H         7.8524573054        0.1882735182       -2.9384902725
 H         8.0684885544        2.0361487336       -2.8476054760
 H         7.3061093062        1.1482998539       -4.1938263771
 H         4.5595176937        3.1814775773       -2.7376647199
 H         6.0810814799        3.4304828274       -1.8560951137
 H         6.1062697364        3.4181694177       -3.5144794821
 H         7.9079726135       -0.1970148419        1.6940449586
 H         6.2105554423        0.4513670756        1.7248038662
 H         3.6676455644       -3.2266054139        0.5791281590
 H         3.2987784517       -4.0405777212        2.2321921580
 H         5.5378557308       -4.5587852956        2.0653264985
 H         6.1998585037       -4.0286427620        3.6413986140
 H         7.2479896546       -3.7706983023        2.2684903832
 H         6.1054737553       -2.1681107301        4.5780254442
 H         7.1856408221       -1.0564274739        3.4837924181
 H         5.5512197223       -0.5163231991        3.8268077808
 H         1.2196614603       -3.0368227024        2.3648044815
 H         1.4020364448       -3.4733310370        0.5846257989
 H        -2.3234657025       -0.5665421301        0.5718904478
 H        -2.2402417123        0.7644958162       -0.6283404136
 H        -1.0644588706        0.0298443153        2.3381686068
 H         0.1551835817       -0.9155660747        3.0682762835
 H        -0.9387003693       -1.8112301368        2.2892785240
 H         1.6117668386        0.8476152926        2.5424131574
 H         1.9929511590        1.1784221560        0.9923512894
 H         0.4660602315        1.8129587465        1.3593685586
 H        -3.2560235341       -1.6858124131       -1.4892255814
 H        -2.0401027222       -0.7819828025       -2.3917831260
 H        -3.6378946441       -5.9615147205       -3.0015754286
 H        -2.2352764643       -6.7496091011       -2.3653464854
 H        -3.6493489232       -3.4752246969       -3.3026441598
 H        -2.4906776527       -3.8105750373       -4.6850572568
 H        -2.6615678415       -2.2514361375       -4.0204791163
 H         0.3705962509       -4.5904891059       -2.3815468439
 H        -0.8172241839       -5.3912340577       -3.4667454954
 H        -0.0628629837       -3.9181163455       -3.9018931425
 H        -3.5609738662       -6.7192738659       -0.1333103059
 H        -4.4999569833       -7.5402094624       -1.3501569282
 H        -4.9849159194       -3.0179356382        0.5627274097
 H        -6.6980896770       -2.8309978692        0.4998939268
 H        -8.3833294370       -5.5295351501        0.3254790831
 H        -7.7588907683       -6.2739212285       -1.2065760603
 H        -7.6632631105       -4.4529655579       -0.5617208821
 H        -5.4771148133       -7.5507438320        1.4814833109
 H        -7.2496297428       -7.6102442541        1.0995274893
 H        -5.9895310338       -7.8623869174       -0.0850084295
 H        -6.4291132008       -2.4513511021        3.1412630441
 H        -4.7040690631       -3.0485828040        2.8164212716
 H        -4.6778194958        2.2731056587        1.9658180547
 H        -5.3611589234        2.5815652278        3.5867505291
 H        -6.7682515390        0.8733706246        2.4451920242
 H        -6.8703264720        1.1190533844        4.2711255023
 H        -7.3374148251       -0.2878608373        3.6031915392
 H        -4.0978096161       -1.4897553138        4.8251522009
 H        -5.0422337056       -0.2525019586        5.7760199826
 H        -5.7626295024       -1.6400996639        5.0264712948
 H        -2.3768406069        2.8787124728        3.4276390146
 H        -3.5220053888        4.1951788743        3.7571051220
 H        -1.5966163794        4.5533621787       -0.8451702065
 H        -1.7376065898        6.3197522321       -1.2210923559
 H        -3.5949265413        5.5420427966       -0.6364485351
 H        -3.8886711285        7.1402627745        0.0540361091
 H        -4.8738969251        5.6146844232        0.6214132883
 H        -2.9521832296        7.3552007567        2.7559731644
 H        -4.0047074556        6.1349529451        3.2584350322
 H        -2.2885694342        5.8115322249        3.4338337068
 H         0.6789150018        6.6021260508       -0.4832215584
 H         0.7593559401        4.8090790329       -0.5909264219
 H        -0.2291890485        3.1913055784       -3.9073923357
 H         1.1433040834        1.9648220063       -3.9797098351
 H         0.0942012622        2.0207422935       -2.6074094675
 H         0.6279832045        4.8188249026       -5.2016763429
 H         2.3971499691        4.8246937517       -5.2792497735
 H         1.4918030713        6.3085530048       -4.9191055397
 H         2.9611165198        6.8557529619       -3.1584468337
 H         2.9225834028        5.9028381943       -1.6972097092
 H         3.8997091769        5.3120221838       -2.9903290813
 Na        2.6843906335        1.0315372356       -1.0675508934
