155

 C         5.3369172686       -0.9958020835       -3.9943995835
 C         4.8570109217        0.2963848505       -3.2633605717
 C         5.9116162870        1.2179292998       -2.4926425060
 C         5.8353264432        0.8319630404       -0.9147245680
 C         7.0395142380        0.2968512732       -0.1019752518
 C         7.4020947395        0.9568327388       -3.0060404775
 C         5.4556977334        2.7305022555       -2.7569147813
 O         3.7094822921        0.6099664788       -3.3045589109
 O         4.7454307321        0.9296364814       -0.3792649565
 C         6.6573323132       -0.2492557506        1.2604937902
 C         6.4315066831       -1.8099363489        1.3143385610
 C         5.8239816012       -2.3595597139        2.5999297724
 C         4.2737604188       -1.9740209621        2.3775275380
 C         3.4986801034       -2.8331215465        1.5155655063
 O         6.5824991341       -2.5230152850        0.2952540064
 O         3.7726872225       -0.9530583430        2.8532327762
 C         6.0007677442       -3.8453860834        2.8506186823
 C         6.2288718662       -1.6153216718        3.8763224785
 C         1.9768691147       -2.4830562404        1.5423644195
 C         1.7961711648       -1.1083387169        0.8847084568
 C         0.4516693929       -0.3440132696        1.2943023242
 C        -0.3867935653       -0.0616855414        0.0419640568
 C        -1.8091947835       -0.6745116648       -0.0990125090
 C        -0.3209785427       -1.1599475582        2.3783034228
 C         0.8485782194        1.0205251461        1.9786624637
 O         2.6474907266       -0.6852975179        0.1416125163
 O         0.1993839056        0.5575135788       -0.8756003199
 C        -1.9104025849       -1.3983071062       -1.5121641414
 C        -0.9663134149       -2.6060473890       -1.6817625854
 C        -1.4708069913       -3.7809299982       -2.5204430971
 C        -2.1167518999       -4.9066787668       -1.4947896973
 C        -2.7191750830       -6.1920334138       -2.2124690516
 O         0.1344053548       -2.6821156173       -1.1193587059
 O        -2.0537143139       -4.8090024853       -0.3049736463
 C        -2.5672004623       -3.4209728978       -3.5822175304
 C        -0.2900276254       -4.4374691565       -3.2294674916
 C        -4.0472191279       -6.7079970999       -1.4348618375
 C        -4.9097752572       -5.4816876289       -1.0609205066
 C        -6.0576661902       -5.7024258973       -0.0375099702
 C        -5.8802259180       -4.6874826185        1.2253546902
 C        -5.5083533951       -3.1918102928        1.0332130706
 C        -7.3639198558       -5.2992611055       -0.7026138000
 C        -6.2061035568       -7.2490915639        0.3873016041
 O        -4.8375643386       -4.3813440975       -1.5987853679
 O        -6.2368423923       -5.0242404921        2.3195306411
 C        -5.5620443538       -2.4782675742        2.4130487492
 C        -5.1122783857       -1.0537463421        2.4011976738
 C        -5.3349833892       -0.1343540059        3.6319501254
 C        -4.2411836838        0.9812271495        3.4274411062
 C        -4.5225825746        2.2279519650        2.6464954203
 O        -4.4547415558       -0.6271196900        1.4807303467
 O        -3.1160188476        0.7708090000        3.8340008015
 C        -6.8354724129        0.2702350930        3.6531907626
 C        -4.9945914251       -0.9726518546        4.9870128780
 C        -3.4539613310        3.3519145571        2.8138409554
 C        -3.1559913093        4.1449496422        1.5798546730
 C        -2.8786102138        5.6358025049        1.5764722311
 C        -1.3841074170        5.7848553058        1.0226135647
 C        -1.2819688095        5.7264252887       -0.4930536719
 C        -3.8941938643        6.2290577136        0.6396328622
 C        -3.0014515514        6.2877466302        2.9831450370
 O        -3.1698542514        3.5689671354        0.4838302881
 O        -0.4102569193        6.0205866483        1.6758536419
 C         0.1073645144        6.0029462268       -0.9926074127
 C         0.1758394921        5.8584256107       -2.4953072337
 C         1.4805360617        5.3120445904       -3.2623567897
 C         1.5513063327        3.8154122833       -2.8860629238
 C         0.4891247840        2.9398388467       -3.4478363090
 O        -0.8266987930        5.9820160380       -3.1575795696
 O         2.3550320410        3.4496693278       -2.0356522945
 C         1.3313353305        5.5419513355       -4.7819071062
 C         2.7725788982        5.9981754248       -2.6814303763
 H         5.9471045025       -1.5780133137       -3.3435892208
 H         4.3878570565       -1.4847557282       -4.2588445438
 H         5.7628855066       -0.6915103050       -4.9256177915
 H         7.4165640323       -0.5167387113       -0.7148167711
 H         7.7801233651        1.1576721058       -0.1051921247
 H         7.6750125093       -0.0922426351       -2.7116101508
 H         8.0926465090        1.7805402930       -2.7238688736
 H         7.4318596850        0.9528200561       -4.0859027062
 H         4.5786727230        2.9841775772       -2.1835242330
 H         6.1429789539        3.5143475729       -2.4927418740
 H         5.1372243849        2.8257077278       -3.8141719466
 H         7.5287577969       -0.0958744837        2.0490287193
 H         5.6381094079        0.2377377353        1.5440924778
 H         3.7993922990       -2.7303783707        0.4310007867
 H         3.5978642657       -3.9273084335        1.7542713079
 H         6.2861597813       -4.3110285053        1.8408899147
 H         5.0786010547       -4.2141851930        3.2649337594
 H         6.7750280490       -4.0876126234        3.5305385113
 H         5.5647794621       -1.8416546724        4.7575904614
 H         7.2025163327       -1.9620172256        4.2098009954
 H         6.1693775097       -0.5497221016        3.7663409368
 H         1.5559927326       -2.4222333796        2.5770838214
 H         1.4453822890       -3.2378666125        0.9394896319
 H        -2.0335755946       -1.3830702816        0.6737073293
 H        -2.6234562028        0.1420117659       -0.2124792778
 H        -1.2804469468       -0.6955552587        2.5011326329
 H         0.1155671915       -1.0175787245        3.3203747132
 H        -0.5862311379       -2.2255997077        2.1107772896
 H         1.5458189221        1.0329030738        2.7898445326
 H         1.2136182964        1.7541452396        1.2297005089
 H        -0.1506334779        1.4992859984        2.4095175930
 H        -2.9355839080       -1.6912987834       -1.7453334020
 H        -1.5731183403       -0.7012385282       -2.2463120067
 H        -2.9523718846       -5.8878226950       -3.2278061339
 H        -1.9447886670       -6.9973170224       -2.2979015780
 H        -3.4532498314       -2.9871471831       -3.1652617902
 H        -3.0435839159       -4.3043926951       -4.0590559351
 H        -2.2055682628       -2.6194616883       -4.1737056015
 H         0.4348011653       -4.9242825019       -2.5494456047
 H        -0.6486273078       -5.2665849172       -3.9834372020
 H         0.1745702693       -3.6922973330       -3.8783599474
 H        -3.5524492249       -7.1551220232       -0.5511540792
 H        -4.6194203082       -7.4476184471       -1.9044989838
 H        -4.6195988589       -2.9950171863        0.4299647750
 H        -6.2925227295       -2.6694558843        0.3953770775
 H        -8.0376531913       -5.0602864781        0.0951186166
 H        -7.8063707224       -6.0604962092       -1.4635826412
 H        -7.2084733263       -4.3415413231       -1.2105969149
 H        -5.2219383383       -7.6359658234        0.7044242478
 H        -7.0303757473       -7.4584619042        1.0671550135
 H        -6.3938084962       -7.7679336965       -0.5753782465
 H        -6.6009625844       -2.5843336875        2.7101670852
 H        -4.8330068303       -2.8669859142        3.1322061726
 H        -4.5671681684        1.7827235132        1.6490883404
 H        -5.5521610824        2.5537272103        2.8420914557
 H        -6.9909732626        0.9394278937        2.7768132303
 H        -7.0908467465        0.9378678828        4.3983794028
 H        -7.5293945152       -0.6478597108        3.6800809694
 H        -3.9429696918       -1.1147969142        5.0517790838
 H        -5.2125270041       -0.4009200193        5.8901499562
 H        -5.4019396178       -1.9487455282        5.1193188340
 H        -2.4141597175        2.9485758872        3.0593926648
 H        -3.8157638478        3.8867249971        3.6935511208
 H        -1.6079014158        4.6480787742       -0.7043982029
 H        -1.9405532368        6.3490581035       -0.9874239872
 H        -4.1728277537        5.5825369526       -0.2086794360
 H        -3.5597702908        7.2222232482        0.4055753730
 H        -4.7607673933        6.5081156094        1.2336468405
 H        -2.7050560556        7.3064200794        2.9172937714
 H        -4.0157215383        6.2281404193        3.3453711628
 H        -2.2290965227        5.8721571549        3.7065484903
 H         0.4328542322        7.0435833882       -0.8113163267
 H         0.8144298539        5.3015446311       -0.4751371104
 H        -0.2399404605        3.4985079883       -4.0947184877
 H         0.9067655603        2.1378279361       -3.9882153155
 H        -0.0896417932        2.5432690575       -2.5966031367
 H         1.5266215576        4.6544045352       -5.3874624700
 H         2.1897977025        6.2435476902       -4.9888981075
 H         0.3991123040        5.9931590742       -4.9243253177
 H         2.7282719862        7.0698153463       -2.7862714335
 H         2.9260377561        5.8988534818       -1.6151220136
 H         3.5261166649        5.8093877727       -3.3088571481
 Na        2.3583412274        1.2762026542       -1.3968724129
