155

 C         5.3884076505       -1.0083574189       -4.1773274037
 C         4.8493437185        0.0856174940       -3.2050243739
 C         5.8920566080        0.9784631882       -2.5151750105
 C         5.6304188989        0.7976215317       -0.9682258551
 C         6.8926554850        0.4176700696       -0.0303434481
 C         7.4148295903        0.9328310932       -3.0672991090
 C         5.5020676406        2.4866127604       -2.7322762492
 O         3.6380117800        0.1314395500       -2.9663157285
 O         4.5545095097        0.9462876127       -0.4940072565
 C         6.5291213566       -0.2293421506        1.3371444937
 C         6.5401685652       -1.8363506555        1.3524982019
 C         5.9184899925       -2.3041534004        2.6698976055
 C         4.4054338098       -2.0453934664        2.5305771290
 C         3.5914852176       -2.7314633014        1.3870586736
 O         6.8838916143       -2.6392488690        0.5463756777
 O         3.8204321447       -1.1139037172        3.0427797962
 C         6.1045314699       -3.8014185363        2.9305514541
 C         6.4212789535       -1.5766894860        3.9365115758
 C         2.0550673031       -2.5052781418        1.3963822018
 C         1.6678828762       -1.0873698033        0.9600968695
 C         0.4432784377       -0.2588095289        1.4112494890
 C        -0.4252904533       -0.0068607266       -0.0015043788
 C        -1.7862998177       -0.7054916441       -0.2049126074
 C        -0.4302038598       -1.0300047937        2.4722572584
 C         0.8902709331        1.0885112924        1.8724019673
 O         2.4483063504       -0.5284494617        0.2231823690
 O        -0.0464395631        0.7798123655       -0.8088120613
 C        -1.8311823424       -1.5360951241       -1.5103849288
 C        -0.8536640364       -2.7109348540       -1.6547753563
 C        -1.3404627907       -3.7914466747       -2.6404226679
 C        -1.9734457151       -4.9264990583       -1.5728356904
 C        -2.6473961089       -6.2236523114       -2.1571108719
 O         0.1418136674       -2.7761763489       -0.9966034393
 O        -1.8640873835       -4.6776144805       -0.3774131972
 C        -2.3235726967       -3.2164003857       -3.6643254723
 C        -0.1160644689       -4.5144845035       -3.3206995053
 C        -3.8298045875       -6.6009499208       -1.2985244168
 C        -4.8153775859       -5.3388929488       -1.1031725089
 C        -6.0804274885       -5.5670228114       -0.1458127617
 C        -5.8968924130       -4.8441213563        1.2378324212
 C        -5.3197651709       -3.4354574519        1.1223825977
 C        -7.4222469513       -4.9838815960       -0.8906840218
 C        -6.2448481859       -7.0721341836        0.2381723875
 O        -4.5661458304       -4.2747940168       -1.6225627180
 O        -6.4076661383       -5.3466653500        2.2079466644
 C        -5.6671070467       -2.5745471724        2.3072175989
 C        -5.0810008525       -1.1713241507        2.2597725078
 C        -5.2691310277       -0.2844958036        3.5079301068
 C        -4.1529429754        0.8154642732        3.4071888500
 C        -4.4824596885        2.1104052028        2.4688494795
 O        -4.4715616890       -0.7909726160        1.2562779883
 O        -3.1097253706        0.8320801649        4.0071252022
 C        -6.7324611848        0.2619434581        3.5955567935
 C        -4.9837909344       -0.9891437059        4.8019061294
 C        -3.5662373262        3.3520162667        2.7961482073
 C        -3.3582485203        4.2244206048        1.5849806572
 C        -2.9549740758        5.7289289462        1.6886753972
 C        -1.4429113632        6.0696731481        1.0594657956
 C        -1.3869102396        5.8741120976       -0.4859916872
 C        -3.9919683135        6.5881928062        0.8622214283
 C        -2.8540812392        6.1486642891        3.0940440995
 O        -3.3555403536        3.6651611603        0.5297241433
 O        -0.5462484475        6.2756312808        1.8213311342
 C         0.0252545146        6.1548442676       -1.0844021698
 C        -0.0301420766        5.7207009144       -2.5895768205
 C         1.4160686734        5.4158568428       -3.2036912851
 C         1.5276259619        3.9151927531       -2.9525853055
 C         0.5461019107        2.8787714544       -3.5041851235
 O        -1.0165140977        5.6592213519       -3.2797645717
 O         2.3318620659        3.4958827558       -2.1464374078
 C         1.3761453464        5.6876647769       -4.7622677805
 C         2.5541883772        6.2462348283       -2.6036260578
 H         6.2492917391       -1.4340331555       -3.5692693076
 H         4.6813979069       -1.7584722241       -4.3953574078
 H         5.6499866044       -0.5086902042       -5.1235611945
 H         7.6261885151       -0.1830274353       -0.6319199976
 H         7.2681137408        1.4052845108        0.2071298257
 H         7.7539095945       -0.0645925842       -2.9335587535
 H         8.0600450786        1.6317462683       -2.5364111235
 H         7.4244362007        1.2221538952       -4.1386469357
 H         4.3891031838        2.6279863734       -2.5956834084
 H         5.8027468827        3.0862354446       -1.8690054002
 H         5.8111604699        2.9296840264       -3.6994045333
 H         7.3135388208       -0.0283289805        1.9854930330
 H         5.5653884588        0.1397865209        1.6133741147
 H         4.1016090097       -2.2918292226        0.5445096018
 H         3.5871671376       -3.8083534774        1.2031123634
 H         5.6045123579       -4.2764598980        2.1275628624
 H         5.6760581900       -3.9874863689        3.9743453391
 H         7.1533102311       -4.1736152701        2.8735959631
 H         5.9295821652       -2.0005450376        4.8162573816
 H         7.4981331225       -1.6161317363        4.2356304393
 H         5.9302710672       -0.5582882770        3.9286714672
 H         1.7606167650       -2.7861497682        2.3892854825
 H         1.5517708816       -3.1959841105        0.7032985019
 H        -2.0546523791       -1.4382140177        0.5534417125
 H        -2.5723047070       -0.0238540723       -0.3925045934
 H        -1.2680682613       -0.4368018913        2.8856512131
 H         0.1516174290       -1.1486686889        3.4168162220
 H        -0.9313824914       -1.8463612124        2.0285309640
 H         1.4594472932        1.0865976611        2.8592320892
 H         1.5948879807        1.4335669000        1.1220715907
 H         0.1656201907        1.8010969572        2.0646983870
 H        -2.8823113564       -1.8433356749       -1.6482621230
 H        -1.5346072337       -0.8372532732       -2.3873552085
 H        -2.9087915239       -6.0975725455       -3.2322500815
 H        -1.9586555258       -7.0470766822       -2.0870634409
 H        -3.3604235316       -3.3586322143       -3.3377558839
 H        -2.4442875142       -3.8439086452       -4.4546580508
 H        -2.2155319917       -2.1335599681       -3.7088524701
 H         0.6450070300       -4.5407560441       -2.5421025145
 H        -0.3573458011       -5.4823370587       -3.5331164024
 H         0.2406563411       -4.0575558230       -4.2336945947
 H        -3.3997815842       -7.0157268727       -0.4053041299
 H        -4.3320499749       -7.4626183008       -1.8464218701
 H        -4.2619383551       -3.3327416793        0.7910349205
 H        -5.8175559418       -2.9977392793        0.2775125779
 H        -8.3379117775       -5.1971388484       -0.2438200973
 H        -7.5062390520       -5.4490309942       -1.8539826410
 H        -7.4006765517       -3.9068746958       -1.1568219032
 H        -5.5415309624       -7.2694435298        1.0397885106
 H        -7.2394685769       -6.9934173853        0.6910366798
 H        -6.2534922510       -7.8263060985       -0.5165067129
 H        -6.7969860324       -2.4504406416        2.2590697145
 H        -5.4781767006       -3.0375793618        3.2940757961
 H        -4.4423074405        1.8164087322        1.4143082141
 H        -5.5390671776        2.2722416160        2.6286923943
 H        -7.0195218653        0.7833622406        2.7514764560
 H        -6.8719306381        1.1338767756        4.3040447356
 H        -7.3531426135       -0.5510319954        3.7323029879
 H        -3.9626927368       -1.4635555841        4.8414664929
 H        -4.9088433583       -0.2546055745        5.6077540156
 H        -5.6753669966       -1.7795145837        5.1074223739
 H        -2.6532013028        2.9068952139        3.1468433328
 H        -4.0077051461        3.7676468691        3.7199256756
 H        -1.7933066962        4.9135984215       -0.6531661881
 H        -2.1470715321        6.6232626544       -0.9568627141
 H        -3.7990399221        6.3116498854       -0.1923524947
 H        -4.0171305302        7.6842092301        1.2162089828
 H        -5.0722481499        6.2835670286        0.9931365740
 H        -2.6136939584        7.2170894629        3.1545852749
 H        -3.8114530809        5.9451694427        3.5457681306
 H        -2.0684858058        5.7306189994        3.5863497022
 H         0.3998864451        7.1786427394       -0.9781160854
 H         0.7398957039        5.5204103891       -0.5986255689
 H        -0.3367475341        3.3148798193       -3.9301039027
 H         1.0179972940        2.2799319648       -4.3460399676
 H         0.2442498988        2.2547377921       -2.6805651686
 H         2.2994601251        5.3195786052       -5.1172545724
 H         1.3054717704        6.6957066973       -4.9789031571
 H         0.5237257149        5.0776486150       -5.1379338525
 H         2.5178955822        7.3179162397       -2.8071022766
 H         2.5113854037        6.2238912211       -1.5400068100
 H         3.5692438650        5.9925631260       -3.1385793462
 Na        2.2886789799        1.0812412171       -1.2947273342
