155

 C       -10.2955074092       -3.4510716191        1.9760879316
 C        -9.9291708996       -4.8263435916        1.6152781225
 C        -9.1188447703       -5.7119431235        2.6639634005
 C        -7.6488208330       -5.6971011103        2.1953034651
 C        -6.9537867825       -5.2003042590        0.7397442719
 C        -9.3604816223       -5.4025130824        4.1949972874
 C        -9.4305307704       -7.2281025378        2.4437244876
 O       -10.0856678418       -5.2302281978        0.4799724825
 O        -6.8880859114       -6.2966731689        2.9497663657
 C        -6.5501341295       -3.7355204010        0.9060423972
 C        -5.0674005557       -3.6190602001        1.8503006488
 C        -4.8211568978       -2.6310078566        3.0801183928
 C        -4.5887645532       -1.1812509806        2.2415484974
 C        -3.1792003923       -0.8698692643        1.6553485617
 O        -4.1913046906       -4.2544190907        1.3667172561
 O        -5.5227306926       -0.4640846427        2.0563902315
 C        -6.0555902097       -2.4346550208        3.9393239072
 C        -3.4926610267       -3.0636982100        3.7471486069
 C        -3.1346043670       -0.3471788011        0.2389525671
 C        -1.9008616915        0.4860843079        0.1478273349
 C        -1.5981799428        1.2719989325       -1.1708585968
 C        -1.6657963192        2.7949717151       -0.9314400315
 C        -2.8453270075        3.7354214472       -1.5009765315
 C        -0.0984006452        0.8534494726       -1.5439913302
 C        -2.5493361050        0.8843511121       -2.3748420688
 O        -1.1446984627        0.6811168996        1.0717420086
 O        -0.8402269106        3.4083702333       -0.2762200449
 C        -3.0409727383        4.9699155829       -0.6239079875
 C        -3.8850739404        4.8022685729        0.7045199996
 C        -3.7820796778        5.8249449204        1.8938839452
 C        -2.9312442731        5.0942724836        3.0645347687
 C        -3.4323175033        3.6530399441        3.3794890993
 O        -4.7132530577        3.9227745450        0.7797708842
 O        -2.0479986187        5.6088345288        3.6937593202
 C        -3.0304229690        7.1255056444        1.5836976630
 C        -5.1031339949        6.1156092103        2.5221995646
 C        -2.6773846354        3.0236402913        4.5402855302
 C        -1.2526658366        2.6796292312        4.1093706728
 C        -0.3212971346        1.7783378008        5.0271783253
 C         1.0844607500        1.6619886628        4.4229324501
 C         2.0379859184        2.8733351933        4.4018703970
 C        -0.2052003956        2.3832497479        6.4472973636
 C        -0.9484886071        0.3889534360        5.0116048809
 O        -0.9092764362        2.9695721523        2.9692565890
 O         1.5145506692        0.5553214482        4.1588347780
 C         3.4160004077        2.3869238717        3.6790553549
 C         3.3394237135        2.8349459160        2.2394085271
 C         4.4258848953        2.2291035943        1.2238781572
 C         3.8095623336        1.1123616799        0.3730784101
 C         4.7258791547        0.3718222197       -0.5082810834
 O         2.4411976482        3.5357412700        1.7615967248
 O         2.5466776013        0.9602666962        0.3567971671
 C         4.5625974275        3.4359927351        0.2368626249
 C         5.6351774769        1.6615668761        2.0537605374
 C         4.1481340642       -0.5221764209       -1.5956517998
 C         5.2377644495       -1.1530174571       -2.4645783899
 C         5.0936830404       -1.9979019716       -3.7734544316
 C         5.5254490135       -1.0694936986       -5.0127946897
 C         7.1215915035       -1.0338857858       -5.4093127970
 C         5.9472182095       -3.2101676830       -3.6139215129
 C         3.6574005016       -2.5200249186       -4.1226957449
 O         6.3442224097       -0.8284284355       -2.1315570525
 O         4.8139518381       -0.1436327445       -5.3666222520
 C         7.4553021848       -1.9338701379       -6.6604898640
 C         7.4286785833       -1.0795825160       -7.9035490237
 C         7.3319188759       -1.7684786930       -9.2186650842
 C         8.4363575632       -2.8986907066       -9.2417247858
 C         9.5818722788       -2.5670085982      -10.1988758235
 O         7.4110044155        0.1167706850       -7.6690837957
 O         8.2361789332       -3.9318620016       -8.7264882642
 C         5.9607461172       -2.5288225904       -9.2861389090
 C         7.3223807983       -0.5865979751      -10.2805970619
 H       -10.3722506221       -3.1892324766        3.0276192685
 H        -9.5050147487       -2.7610294418        1.6893603535
 H       -11.1918109987       -3.1089570890        1.4372220676
 H        -6.1077611494       -5.8486487052        0.6521808500
 H        -7.7781098984       -5.2068240295        0.0303553361
 H       -10.2084204773       -4.8043122784        4.2220074748
 H        -8.5551907773       -4.8937163075        4.7579894348
 H        -9.6568049704       -6.3523568159        4.6638974161
 H       -10.4554626401       -7.4780953221        2.6695759339
 H        -9.3317706504       -7.6584642593        1.3608712550
 H        -8.7769511967       -7.8137819204        3.1263932798
 H        -6.3273215690       -3.2731347104       -0.1333403122
 H        -7.3336785961       -3.1329152139        1.2951642632
 H        -2.7601235828       -0.1549845564        2.3231968785
 H        -2.4003478503       -1.7049652219        1.6085983338
 H        -5.7424837480       -1.8622890124        4.8498168696
 H        -6.5868783391       -3.3509431869        4.1031179750
 H        -6.7856526261       -1.7797876230        3.3869930208
 H        -3.6721868445       -3.7055435076        4.5659628268
 H        -2.8986794326       -3.6000478769        3.0147674538
 H        -2.9446708113       -2.1253006746        4.1294879398
 H        -3.8852641340        0.3095134507       -0.0920537602
 H        -3.1108669534       -1.0925906094       -0.4993530265
 H        -2.4862112853        4.0140693170       -2.4763752677
 H        -3.6529229143        3.1316021908       -1.5917879722
 H         0.7673533726        0.9576779610       -0.8117230626
 H         0.1551767627        1.4819912420       -2.3890757962
 H        -0.3010182980       -0.1757689642       -1.8582360308
 H        -2.6343851613       -0.1468549406       -2.5231510360
 H        -3.5964924093        1.1458184974       -2.3045847671
 H        -2.1731993816        1.3576980244       -3.2527246049
 H        -2.0414666095        5.2880244218       -0.3984004751
 H        -3.5363006513        5.8456285341       -1.2328254764
 H        -4.4995389450        3.7249917958        3.5312100487
 H        -3.2744620778        3.1587115094        2.4292747752
 H        -2.0089911270        6.9488319386        1.1868533773
 H        -3.0427640992        7.7445257080        2.5036516683
 H        -3.6543507801        7.7407976307        0.8761660390
 H        -5.6044217402        6.9078257604        1.8868225724
 H        -5.7754172364        5.2319663138        2.5196847252
 H        -5.1130711324        6.4888324266        3.5597680514
 H        -3.1769233698        2.0758000147        4.7880847039
 H        -2.7817884694        3.6579557564        5.3545489536
 H         1.7857676025        3.7661723910        3.9148841568
 H         2.1890856128        3.1029201313        5.4996090376
 H        -0.4452272936        3.4065664599        6.4828758312
 H         0.8272706400        2.4569752714        6.8172445633
 H        -0.7751029201        1.7898042238        7.0554022128
 H        -0.5811485687       -0.2684477059        5.8571467725
 H        -1.9542307692        0.4235198676        5.2982134771
 H        -0.6477095932       -0.1640767279        4.0998291726
 H         4.2343995022        2.9650236497        4.0652170305
 H         3.6734383291        1.2912721287        3.6901350133
 H         5.4160379119        1.1830457817       -0.9693292697
 H         5.4401727020       -0.3202771786        0.0121914798
 H         5.0435220532        4.3119290856        0.7043490246
 H         3.6155573821        3.8488813063       -0.1408864908
 H         4.9353958695        3.2032377737       -0.7492997663
 H         6.2355455227        1.2103016086        1.3688155247
 H         6.1723951657        2.4830191834        2.6484434932
 H         5.2810419056        0.9238562282        2.7469731678
 H         3.6829945983        0.1792976408       -2.2820873018
 H         3.4412459925       -1.3095930151       -1.1218853440
 H         7.3372407862        0.0449265487       -5.7221015583
 H         7.6316062256       -1.2383013509       -4.4897354630
 H         6.8541775015       -3.0296118153       -3.0943569830
 H         6.1646369913       -3.6177702636       -4.6235952627
 H         5.3907736106       -4.0776613185       -3.1819494312
 H         3.0452102985       -1.6528370605       -4.2062423434
 H         3.7005129544       -2.8880953480       -5.1269542079
 H         3.3465703802       -3.2364312975       -3.3223027785
 H         8.4834334837       -2.2969214410       -6.5463432294
 H         6.7546308986       -2.7873046988       -6.7124631719
 H        10.2738306352       -1.8934455220       -9.7657897279
 H        10.2447108073       -3.3606275541      -10.2305294508
 H         9.3310851978       -2.2907387491      -11.2077336009
 H         5.2025909967       -1.8064821406       -8.9589691494
 H         5.8153224830       -3.1685681770       -8.5231829353
 H         5.6426565869       -2.9769659569      -10.2436847460
 H         6.8747020051       -0.9654617368      -11.1583079222
 H         6.6291965025        0.2353871279       -9.9328560214
 H         8.2921991419       -0.1719726385      -10.5418838287
 Na        0.5789811672        2.2204772554        1.1940998692
