155

 C       -10.2398479134       -3.4984677763        2.0702296917
 C        -9.7305924759       -4.7929654331        1.5543402225
 C        -8.8364377496       -5.7552599249        2.4931845746
 C        -7.2838425273       -5.7238102728        2.1297110887
 C        -7.0088500209       -5.0386303133        0.8081358655
 C        -8.9846369647       -5.3501387869        4.0241517449
 C        -9.5608788650       -7.1819366096        2.2607675602
 O       -10.0407045818       -5.1375779797        0.4245556852
 O        -6.5354990673       -6.1179301635        3.0047335252
 C        -6.2592639456       -3.7028293610        0.9705107070
 C        -4.9138206135       -3.7775900309        1.6596577675
 C        -4.8765870441       -2.7069142787        2.9901822697
 C        -4.6732802018       -1.3441645164        2.2121251226
 C        -3.2169546515       -1.1094047766        1.7993726112
 O        -3.8822568995       -4.3248934689        1.2859447104
 O        -5.5984163270       -0.6269366785        1.7774573034
 C        -6.2090960888       -2.8191840599        3.7421556012
 C        -3.6407487306       -3.0711994688        3.9469507002
 C        -3.1064380171       -0.3840195326        0.4582561230
 C        -1.7767740411        0.5256614886        0.2777726797
 C        -1.6401457335        1.3496336976       -1.0318214506
 C        -1.5089415492        2.9474289434       -0.7236350703
 C        -2.6679972801        3.7856900643       -1.2279783428
 C        -0.2932844222        0.9994628622       -1.7089018303
 C        -2.7479740256        0.9746972191       -2.0709146919
 O        -0.9383460947        0.5744679413        1.1636061807
 O        -0.5186389950        3.4353376838       -0.2674060586
 C        -2.7540453826        5.0765480647       -0.3844157604
 C        -3.7839475866        4.9308486068        0.7602169050
 C        -3.6791574930        5.9418709131        1.9763475685
 C        -2.9859844390        5.1173148059        3.1140978586
 C        -3.5690417423        3.7431725979        3.5725607707
 O        -4.4866897580        3.9508608435        0.8078275795
 O        -1.9414097904        5.4839910619        3.5712048142
 C        -2.8687897247        7.1906057339        1.6307110425
 C        -5.1148537176        6.3022552952        2.5045174768
 C        -2.6225741408        3.0966243412        4.5584150190
 C        -1.2561540878        2.6253646961        4.0017577038
 C        -0.3894568360        1.7891175660        4.9804833679
 C         1.1064894141        1.7049825224        4.3978897478
 C         2.0752883908        2.8482578288        4.4505064105
 C        -0.4228122645        2.4830646961        6.3866340879
 C        -1.0251791640        0.3710948032        5.0345395538
 O        -0.9856500535        2.8703072759        2.8522916557
 O         1.4375861728        0.6841551001        3.8767450722
 C         3.3935155370        2.6769260938        3.8012745083
 C         3.2981242527        2.8287700920        2.1922483048
 C         4.4291059228        2.3537142358        1.2353422913
 C         3.7070232430        1.1416921930        0.3394680691
 C         4.7889179028        0.2088161180       -0.3311772169
 O         2.3474936218        3.4604320764        1.7433728670
 O         2.5248367935        0.9719302402        0.2736838323
 C         4.9489521831        3.4594476613        0.3219832713
 C         5.7281066705        1.9335785610        1.9514976132
 C         4.1382525960       -0.4722543595       -1.6091200493
 C         5.2471644029       -1.1672015463       -2.3970523614
 C         4.9755118932       -1.9851151575       -3.6584876895
 C         5.4900750044       -1.0434412627       -4.8671700277
 C         6.9450836296       -1.0686077227       -5.2828361440
 C         5.7793275065       -3.2806252100       -3.5629932917
 C         3.4455785440       -2.2505343749       -3.9429216565
 O         6.4081819438       -0.9717425895       -2.0883121015
 O         4.7135373125       -0.2919567959       -5.4008922405
 C         6.9696829755       -1.9107205119       -6.5823381221
 C         7.0761229443       -1.1407985835       -7.8672096119
 C         7.0258107301       -1.8741724112       -9.3550353096
 C         8.1756498436       -2.9864166653       -9.5247445305
 C         9.4097039773       -2.8224110057      -10.3852486760
 O         7.2745178087        0.0319621417       -7.7827932550
 O         7.9792670915       -4.0790655207       -8.9641103992
 C         5.6400484816       -2.4869068940       -9.4838314326
 C         7.2891723880       -0.8372467087      -10.4294169458
 H       -10.6849476376       -3.5378318810        3.0667720664
 H        -9.4939301858       -2.7082115410        2.2129853685
 H       -10.9844987776       -3.1414473176        1.3818845934
 H        -6.2970458449       -5.7891957128        0.3652057669
 H        -7.9554342786       -4.8679342056        0.3273143291
 H       -10.0426767155       -5.3489532335        4.4664100828
 H        -8.6422273743       -4.3297891817        4.1187471214
 H        -8.2620276819       -5.9659679828        4.5183536149
 H       -10.4510648183       -7.3382139217        2.8434771862
 H        -9.8277581915       -7.2647669166        1.2293039700
 H        -8.9674700755       -8.0198386951        2.4610541773
 H        -6.0514159118       -3.3500000299        0.0217665983
 H        -6.7196128252       -2.9156272893        1.5835530457
 H        -2.5192388534       -0.5688694267        2.5264862765
 H        -2.7313469181       -2.0271102962        1.6801107041
 H        -6.0753536077       -2.4848031353        4.7274110844
 H        -6.6028152992       -3.8699060823        3.7155281213
 H        -6.8905293948       -2.1165066182        3.2834585940
 H        -4.0722491408       -3.6953163866        4.8040392729
 H        -2.7348754288       -3.4999927900        3.4134912974
 H        -3.3201765004       -2.2225578933        4.5282319120
 H        -3.9165678128        0.3847869439        0.2992921789
 H        -3.1103392533       -1.0128568201       -0.4661718205
 H        -2.4748005993        3.7977343212       -2.3202251009
 H        -3.6343602044        3.1587271808       -1.0119648405
 H         0.4371209600        1.1522350516       -0.9115361706
 H         0.0252792518        1.7938358208       -2.3717884591
 H        -0.3398383618       -0.0105210103       -2.1721812292
 H        -2.6581890812       -0.1161558481       -2.3654498948
 H        -3.8025991042        1.1552694709       -1.8839911442
 H        -2.5679960881        1.5412725603       -3.0218176929
 H        -1.8043377739        5.4439134656        0.0611964166
 H        -3.1054349927        5.8495368516       -0.9662887659
 H        -4.5501277356        3.9880168167        4.0094630405
 H        -3.8094205999        3.1572134236        2.6720891337
 H        -1.9385183394        6.9466808375        1.1559557474
 H        -2.6692250860        7.6730597571        2.5787037461
 H        -3.4365054575        7.8752617016        1.0299409333
 H        -5.6797683492        6.9630282890        1.9366157415
 H        -5.7023915488        5.4798560067        2.8503856256
 H        -4.8588377779        6.8632241151        3.3932762300
 H        -3.1857546667        2.3528560689        5.1160670918
 H        -2.3844470571        3.9937691526        5.2452003329
 H         1.5210416670        3.7092020282        3.9484796916
 H         2.2647586465        3.1621343964        5.4356158100
 H        -1.0769239853        3.4072093086        6.4153232828
 H         0.5176448103        2.8692125811        6.7461864635
 H        -0.8640950924        1.7736259724        7.1902574819
 H        -0.7889203357       -0.2097397521        5.8847382348
 H        -2.1293939934        0.4706076120        5.2095671891
 H        -0.6371234826       -0.1851474513        4.2056059792
 H         4.1106586317        3.3334951773        4.3297893700
 H         3.6815089822        1.6768662598        3.9862032730
 H         5.5897512174        0.8009233211       -0.6155848176
 H         5.1676482705       -0.4800147330        0.3843628955
 H         5.0409726580        4.3123706878        0.9202364777
 H         4.4074399288        3.7897182069       -0.5488477728
 H         5.8785922067        3.1698713622       -0.1590694978
 H         6.5598298937        1.7169851328        1.2101781559
 H         5.9599228049        2.8704470011        2.3890545939
 H         5.5910597340        1.1565914205        2.6965094911
 H         3.8007455135        0.4445860493       -2.1084149885
 H         3.3234327466       -1.1077340447       -1.4614601500
 H         7.2559565612       -0.0668393550       -5.4184159508
 H         7.4824297031       -1.5616450667       -4.4344930542
 H         6.7602010016       -2.8241521453       -3.2561975298
 H         6.0172291906       -3.8628455833       -4.4788700336
 H         5.4487635829       -3.9940922835       -2.8112816481
 H         2.8932106602       -1.3129817231       -3.6547171697
 H         3.3518771111       -2.4943521346       -5.0428991913
 H         3.1460886452       -3.0010383138       -3.2733641250
 H         7.8284523155       -2.6219530207       -6.5193615474
 H         6.0240782320       -2.4797734177       -6.5578483030
 H        10.1373096071       -2.0067414810      -10.1902659860
 H        10.1775147452       -3.6404795917      -10.3516757742
 H         8.9982459333       -2.7446378405      -11.3986570957
 H         4.7734131172       -1.9230357094       -9.2533057801
 H         5.4660382324       -3.3786722881       -8.7928401300
 H         5.6080588569       -2.8734050782      -10.4596233595
 H         6.9929377195       -1.2022665306      -11.4812162660
 H         6.7095435373        0.0540984483      -10.1578414460
 H         8.3620672553       -0.4881213318      -10.5095137962
 Na        0.6536559898        2.2586438584        1.2617605371
