155

 C         5.3722645249       -1.3810601855       -4.1294674435
 C         4.9406089801       -0.3482628213       -3.0934204353
 C         6.0740322247        0.7216151952       -2.6565132734
 C         6.1914533683        0.5780561591       -1.0111789045
 C         7.4764527934        0.1095942940       -0.3822843496
 C         7.3804246124        0.5388557800       -3.3043762067
 C         5.5557895872        2.2339783764       -2.7223096385
 O         3.8182387718       -0.4500389586       -2.6150271426
 O         5.3822492528        1.0140052712       -0.2398754998
 C         7.4358129125       -0.0800106627        1.1552203939
 C         6.4293513643       -1.1882926746        1.4793207881
 C         6.0811459432       -1.5528274013        3.0411998231
 C         4.5153104964       -1.2260797284        3.0681879256
 C         3.5613353010       -2.4870343122        2.5251514545
 O         5.9445129246       -1.8175492705        0.5871250163
 O         4.0156132725       -0.2255276802        3.4060294643
 C         6.3058105301       -3.1513809808        3.2366438280
 C         6.7341137752       -0.7557976700        4.2277418892
 C         2.1417592734       -1.9838091648        2.2742342616
 C         1.9458007840       -0.6486144555        1.4314189245
 C         0.5563560174       -0.0484760153        1.2780779729
 C        -0.0307884219       -0.2626636591       -0.2506807022
 C        -1.2889850465       -0.9472050449       -0.5778209304
 C        -0.4991679336       -0.4938841807        2.2527064857
 C         0.6665908683        1.5203210072        1.3714591084
 O         2.9372280167       -0.2197981821        0.8825470600
 O         0.6346701028        0.2759334778       -1.1685358408
 C        -1.0649603682       -2.0408197951       -1.7156714506
 C        -0.0892558815       -3.1139882274       -1.2203539159
 C        -0.0798473497       -4.6197185606       -1.7447716869
 C        -1.4547708682       -5.1411778068       -1.1583247035
 C        -2.2526856263       -6.3404851240       -1.8079572873
 O         0.5230656437       -2.8628330708       -0.1943675207
 O        -1.9571926030       -4.5388911785       -0.2513607625
 C        -0.1771692080       -4.8250690172       -3.2621242439
 C         1.0487724215       -5.4479338599       -1.1132343551
 C        -3.7522072047       -6.3926922564       -1.5733316470
 C        -4.3814980660       -5.2087084284       -2.3497616220
 C        -5.8462453969       -4.7667079203       -2.0097243435
 C        -5.5808261735       -4.1464749891       -0.6152494662
 C        -5.2351155347       -2.5806542621       -0.3490425016
 C        -6.2885616850       -3.7791532775       -3.0757593543
 C        -6.8436346528       -5.9004928668       -1.7394503691
 O        -3.6746593824       -4.4783031395       -3.0002807730
 O        -5.4602427928       -4.9432195669        0.3323821959
 C        -4.7459862013       -2.3812287757        1.1205954557
 C        -4.7483506719       -0.8866723062        1.4692341978
 C        -4.9796203040       -0.5054496800        2.9974624924
 C        -4.3414770489        0.9328275247        3.0581048807
 C        -5.1720767247        2.0940520695        2.5855694544
 O        -4.4736893496        0.0120519045        0.6778662959
 O        -3.1895320849        1.0521899056        3.4922286241
 C        -6.4461892039       -0.5264673935        3.3169426656
 C        -4.1605732418       -1.6136615206        3.8150990998
 C        -4.6589534982        3.4205359954        3.0059762574
 C        -4.9366811782        4.5228502471        2.0607104918
 C        -4.0868788608        5.9039569736        2.1911155784
 C        -2.6820569228        5.6316225598        1.5327207276
 C        -2.5295082441        5.6478645203        0.0436007605
 C        -4.8662992196        6.9799573697        1.4325251078
 C        -3.8464476776        6.3885361064        3.5978455575
 O        -5.7911498600        4.4271171541        1.1923292804
 O        -1.7250392443        5.2115900913        2.2142500576
 C        -1.0471904179        5.6431338299       -0.3912766883
 C        -0.9343936187        4.7843991024       -1.5893024558
 C         0.2643802168        4.9242945984       -2.5680163402
 C         0.9868916267        3.4826530536       -2.5683105242
 C         0.6834115902        2.4856521110       -3.6678707665
 O        -1.8400370805        3.9960646633       -1.8368717018
 O         1.8910975913        3.2739371634       -1.7616041178
 C        -0.1947455110        5.4010219399       -3.9745369771
 C         1.4499397821        5.8043983768       -1.8788224584
 H         5.9247339272       -2.2824976640       -3.7812214433
 H         4.4799579414       -1.7003280584       -4.6961087211
 H         5.9456113349       -0.9694207663       -4.9031048781
 H         7.8677474233       -0.7782711735       -0.8812339708
 H         8.2629287817        0.8863758208       -0.5976024643
 H         7.5790704518       -0.4939644343       -3.5134615204
 H         8.2418588930        0.8167907639       -2.7093062776
 H         7.4205879543        1.0104449339       -4.2876411831
 H         4.6584085058        2.3434802761       -2.0964464857
 H         6.2854291194        2.9033643589       -2.3305452818
 H         5.5285565907        2.4713653075       -3.8165901667
 H         8.4254082149       -0.3746758829        1.6844859672
 H         7.3072442896        0.8542421161        1.6561848077
 H         4.1483881679       -2.7309327698        1.5787067894
 H         3.5866125152       -3.2274435994        3.3402126749
 H         6.2261421700       -3.3621863946        4.3384830084
 H         7.1583504453       -3.5882688323        2.7880572918
 H         5.5294243452       -3.7161896946        2.8376885216
 H         5.9072630800       -0.6549293487        5.0041340659
 H         7.5556543386       -1.2757720570        4.7519378637
 H         6.9715058686        0.2629840400        3.8995237577
 H         1.7969839837       -1.6168791104        3.2382312354
 H         1.4295041700       -2.7009608164        1.8543189632
 H        -1.7061207621       -1.4909117297        0.2558132501
 H        -1.9929555289       -0.1784706573       -0.9823642228
 H        -1.4402799799       -0.0614361805        1.8454318416
 H        -0.3249671120       -0.1824965799        3.2260606649
 H        -0.6103034642       -1.5809924251        2.4632944679
 H         1.2800187830        1.8017582358        2.1726646978
 H         1.1821660816        1.8939181277        0.4911897962
 H        -0.2455964780        2.1046565705        1.7721600183
 H        -1.9984505826       -2.5064274600       -1.9423023692
 H        -0.7793488518       -1.4604828121       -2.5470800182
 H        -1.9926437359       -6.2459083766       -2.8900965264
 H        -1.7868028677       -7.2798960271       -1.4441280877
 H        -1.1459364107       -4.4739863299       -3.6520379144
 H         0.0183786124       -5.8867904612       -3.4751805516
 H         0.7114957733       -4.3757540960       -3.8075860076
 H         1.0819283854       -5.3306180564       -0.0357349499
 H         0.7578566953       -6.4573382960       -1.5604936828
 H         1.9702939452       -5.1866379492       -1.5129822668
 H        -4.0598371153       -6.2043958792       -0.5484801804
 H        -4.0811769041       -7.3797145849       -1.9649774767
 H        -4.4646994844       -2.3471823233       -1.1757573754
 H        -6.0388596253       -1.8532625080       -0.5737841496
 H        -6.9933214086       -3.1367306023       -2.6513182540
 H        -7.0257830878       -4.1949429196       -3.8404435175
 H        -5.4293095517       -3.4528101908       -3.5792331978
 H        -6.6379144431       -6.5343271151       -0.8650827707
 H        -7.7979862767       -5.4183844411       -1.4219663328
 H        -7.0270408760       -6.4502421964       -2.6227850557
 H        -5.5278874777       -2.8661406553        1.6975630222
 H        -3.7539834204       -2.8358732824        1.1821003380
 H        -5.1276642026        1.9239435841        1.4749136755
 H        -6.2040541153        1.9740945669        2.8161015917
 H        -7.0324639193        0.0293075664        2.5485763471
 H        -6.5904420432       -0.3188474508        4.3152624652
 H        -6.8032686541       -1.6385239471        3.2218901021
 H        -3.0586425333       -1.5436187607        3.6530790339
 H        -4.4596492646       -1.3550848054        4.8353880290
 H        -4.5930825514       -2.5602155732        3.7174712407
 H        -3.5264014688        3.3445038358        3.0506360049
 H        -4.9104469644        3.6810676051        4.0971345196
 H        -3.1599006346        4.8581138012       -0.3343926761
 H        -2.9989223148        6.5581004220       -0.3283639608
 H        -5.2878174138        6.5273744955        0.5329773163
 H        -4.2512340544        7.8609666134        1.3583070934
 H        -5.6905801047        7.1739850899        2.0825079522
 H        -3.4026257373        7.3757289372        3.6084819639
 H        -4.7353024195        6.5882830446        4.1585520874
 H        -3.2553741255        5.6247378498        4.1293966060
 H        -0.7787326768        6.7413622244       -0.6428838723
 H        -0.5640509147        5.4190624306        0.5791767371
 H        -0.3561247894        2.6029317331       -3.9149119508
 H         1.2989302596        2.8478623016       -4.5612064038
 H         0.9601817870        1.5018644663       -3.4170582321
 H         0.1207229857        6.4114868915       -4.1615115879
 H        -1.2937855582        5.4291370950       -4.0144461961
 H         0.1131580320        4.7910352504       -4.7942205647
 H         1.2030619795        6.8439973881       -1.9748757191
 H         1.7526255351        5.4677991798       -0.9131243712
 H         2.3177787956        5.5863484506       -2.4150156111
 Na        2.8960551726        1.1512680089       -1.0702145712
