155

 C         5.7834768972       -1.4860172267       -3.6743168467
 C         5.4335843522       -0.2170068423       -3.1007437598
 C         6.3822926084        1.0692072583       -2.8519212777
 C         6.2718253966        1.2478364005       -1.2846418896
 C         7.3240858834        0.6005676986       -0.3966273444
 C         7.9448652455        0.8518097654       -3.2335953603
 C         5.8781705288        2.2873634091       -3.6897027959
 O         4.2416691765       -0.0688174304       -2.7698948814
 O         5.3564237970        1.8994640016       -0.8209202437
 C         6.7745471838        0.4444665969        1.0228999102
 C         6.5269046530       -1.0333586690        1.4596804153
 C         6.3683286723       -1.2143539459        3.1025357160
 C         4.8960455069       -0.5860038143        3.2471410305
 C         3.7948784372       -1.5357759117        2.7836932135
 O         6.3069981187       -1.9913042921        0.7344307483
 O         4.7130477568        0.4423328018        3.8507565511
 C         6.5151494782       -2.7281613343        3.5298992328
 C         7.3284715406       -0.2607248817        3.8478733955
 C         2.3266248746       -1.0609856007        2.8174857990
 C         1.9897900393       -0.2151136340        1.5861486150
 C         0.6020618487        0.1021573155        1.1271252593
 C         0.4562390214       -0.6105036343       -0.2547093499
 C        -0.8768712764       -1.1411235123       -0.7536158493
 C        -0.5127900018       -0.5420772443        2.1611025152
 C         0.3976921158        1.6602246857        1.0027747178
 O         2.9931181157        0.2663839471        0.9915724487
 O         1.3225581306       -0.6616629263       -1.1280932322
 C        -0.7545921061       -2.4285278743       -1.5083671663
 C        -0.0615908872       -3.4667363368       -0.6452928465
 C        -0.2234984814       -4.9347994117       -1.0300701482
 C        -1.7639613715       -5.3999358103       -0.8989875134
 C        -2.2056213194       -6.4467099649       -1.8881817022
 O         0.7399155235       -3.1179136074        0.1783818039
 O        -2.4357702853       -4.9092688803        0.0098521817
 C         0.3273980769       -5.0560331497       -2.4645520740
 C         0.4898864126       -5.9936060094       -0.1035998783
 C        -3.7613974791       -6.2601067195       -2.0829413317
 C        -4.0381135180       -4.9391336932       -2.7661512119
 C        -5.4769862064       -4.3198487890       -2.7792096154
 C        -5.7671730710       -3.9469650170       -1.3394231336
 C        -5.1294367870       -2.7063699059       -0.7319234434
 C        -5.5492928488       -3.0322599190       -3.6390538700
 C        -6.4649503749       -5.3588405257       -3.3634145852
 O        -3.0780569044       -4.3182674769       -3.1773116911
 O        -6.3988836414       -4.6740472293       -0.6103411093
 C        -5.4955531732       -2.5243019775        0.7620357770
 C        -5.2390691785       -1.0870358304        1.1575666997
 C        -5.3409626858       -0.7208385401        2.5990399037
 C        -4.8195637573        0.7119317097        2.7746115895
 C        -5.8419320350        1.8461074406        2.9732411730
 O        -5.0030080019       -0.2569036572        0.2829264520
 O        -3.6492673739        0.9503028619        2.8582953409
 C        -6.8144985870       -0.7578422071        3.2182256011
 C        -4.4058223948       -1.7019246329        3.4681680673
 C        -5.1459456626        3.1660885931        3.2571147247
 C        -5.4391983024        4.2591755905        2.3210114586
 C        -4.4411261693        5.6405206109        2.3120973611
 C        -3.0137553069        4.9844151507        1.9715549449
 C        -2.6808137369        4.3456935012        0.6105005469
 C        -4.9246301679        6.5272909674        1.2072810489
 C        -4.4965030758        6.0860967375        3.7488010223
 O        -6.3324807808        4.1992461262        1.4940019415
 O        -2.1190213634        5.0295976885        2.7092095786
 C        -1.4206089490        4.9366349409        0.0088802699
 C        -1.0430599919        4.4352206443       -1.3373999470
 C         0.4451664594        4.7227620892       -2.0443428127
 C         1.1382178473        3.3621726867       -2.1958310465
 C         0.6260901400        2.4659568032       -3.2905464180
 O        -1.7675873830        3.7806286622       -2.0613471333
 O         1.9841250935        3.0664187821       -1.3978863088
 C         0.1194446217        5.3567968319       -3.4136373774
 C         1.3277005092        5.6950021834       -1.2718839721
 H         5.4457839837       -1.5515714658       -4.6861929260
 H         6.7995351939       -1.8819195434       -3.6868617679
 H         5.2047839819       -2.2629866369       -3.0915542690
 H         7.5298799231       -0.4135513166       -0.7393095265
 H         8.2095964184        1.2243050021       -0.5037071090
 H         8.2615186177       -0.1365013042       -2.9218567104
 H         8.5383686287        1.4198057137       -2.4849542478
 H         8.1407850051        1.0988777240       -4.2362672319
 H         4.9180114325        2.4359360435       -3.2958056838
 H         6.5640702320        3.0834028097       -3.3851803755
 H         5.8931518182        2.1266713155       -4.7453297446
 H         7.4030170865        1.0618569898        1.6859224244
 H         5.6429332098        0.8417079438        1.0299774146
 H         4.0017758067       -1.9968552357        1.8357607068
 H         4.0249581823       -2.3645096435        3.4382507518
 H         6.1965879396       -3.0512236301        4.4851319662
 H         7.5134638575       -3.0341484219        3.2757945684
 H         5.9509867806       -3.4720583784        2.8731427882
 H         7.2354129328       -0.1142463653        4.8665638319
 H         8.3176563919       -0.6128380742        3.7014646937
 H         7.2088454262        0.6836064564        3.3711213283
 H         2.1635439884       -0.2909427506        3.6066282657
 H         1.6849780055       -1.9207133725        3.0603037218
 H        -1.6026186267       -1.2677030836        0.1186309198
 H        -1.2910418642       -0.3568974528       -1.3257066950
 H        -1.4060802238        0.0607202291        2.1877213232
 H        -0.1813264363       -0.4905604157        3.2486609138
 H        -0.6582113610       -1.5773036620        1.9265438390
 H         0.0741523658        2.0149531613        2.0364702251
 H         1.3331413714        2.1506617167        0.6963279009
 H        -0.3340566976        1.9070390334        0.3098354664
 H        -1.7441407927       -2.8118931293       -1.8070634539
 H        -0.1191544090       -2.3521296208       -2.4821064551
 H        -1.6238102282       -6.3890362787       -2.7478686734
 H        -2.0462911397       -7.4438110414       -1.4886515184
 H        -0.4277089967       -4.8821126032       -3.2145533616
 H         0.4547142502       -6.1276486290       -2.5888838986
 H         1.1610349712       -4.4496473033       -2.6558513376
 H         0.2702543928       -5.8248895315        0.9793129781
 H         0.1751739054       -6.9955241200       -0.4156672785
 H         1.6584253135       -5.9340468050       -0.2043674716
 H        -4.3295257887       -6.2957383882       -1.1907545147
 H        -4.2718827910       -7.0674625503       -2.6396909663
 H        -4.0461609247       -2.7560033648       -0.8272805253
 H        -5.5410887387       -1.8612779833       -1.2844843813
 H        -6.5496947305       -2.5983864791       -3.5085482647
 H        -5.2878956224       -3.2942390568       -4.5888854860
 H        -5.0427636439       -2.0839317430       -3.2711120106
 H        -6.4875260974       -6.3382268479       -2.8707379292
 H        -7.5164854298       -5.0947986994       -3.5044721271
 H        -6.1842641187       -5.5218769378       -4.3988356342
 H        -6.6137318865       -2.6377948040        0.7643189672
 H        -5.2536473480       -3.2418572389        1.4275081200
 H        -6.4852125136        1.8988573961        2.0502582192
 H        -6.4530927960        1.5183110255        3.7799097966
 H        -7.4395320011       -0.0080801541        2.8070166324
 H        -6.9534790401       -0.4790281814        4.3351871117
 H        -7.2581530758       -1.6508024240        2.9636872442
 H        -3.3978965222       -1.6540628258        3.1204058722
 H        -4.5697315406       -1.3752856971        4.5224058649
 H        -4.7627747061       -2.7326335054        3.4258042913
 H        -4.1363274531        2.9212857981        3.3443812216
 H        -5.4440559795        3.6022196166        4.2438866793
 H        -2.5071475894        3.3070605919        0.8439771767
 H        -3.5167783790        4.3967823639       -0.1483319154
 H        -4.5274135900        6.1858256108        0.2693712311
 H        -4.5887703746        7.5371154374        1.3716124034
 H        -5.9832559201        6.5893015059        0.9449668215
 H        -3.8722477168        6.9982385604        3.9562090482
 H        -5.5652601783        6.3620874444        4.0807270520
 H        -4.1558217319        5.2706495291        4.4398440103
 H        -1.6304434025        6.0846194080       -0.1481306710
 H        -0.6042710314        4.9484336446        0.6809313181
 H        -0.4631938967        2.4071969488       -3.0952283597
 H         0.7961035653        2.8546722239       -4.2581080691
 H         1.0325237832        1.4263155288       -3.1624337094
 H        -0.7494791073        6.0887010402       -3.3521689099
 H        -0.1505134506        4.5948769240       -4.1438246829
 H         1.0185715493        5.8702092147       -3.7416646897
 H         0.8656892105        6.6828210906       -1.3589129631
 H         1.4398760736        5.4717563269       -0.2075571907
 H         2.3130601942        5.4797143006       -1.7642410272
 Na        3.1485594295        1.1691688612       -1.2621269326
