155

 C         6.1470712070       -0.9758385416       -2.3830109383
 C         5.5115993013        0.3142166405       -2.7834603245
 C         6.4260529716        1.6818269796       -2.4476275590
 C         6.0201834620        1.9731163865       -0.9451910628
 C         7.1856063574        2.5711052511        0.0330231628
 C         7.8948506239        1.5262073928       -2.7236404604
 C         5.8588859273        2.8551853442       -3.2327374925
 O         4.3696015641        0.4965913838       -3.0825651534
 O         4.8590717796        1.8418386828       -0.6760668058
 C         7.1258391079        2.0391107420        1.3950060995
 C         6.9965030498        0.4298775015        1.5293101957
 C         6.6074005531       -0.0755807826        2.9792522889
 C         5.0378973060       -0.3494974609        3.0094246404
 C         4.5876025012       -1.7803013378        2.5985220605
 O         7.0182612962       -0.3547723591        0.6129728801
 O         4.2941458554        0.4558646253        3.4250006941
 C         7.4122576759       -1.3193993611        3.2293510609
 C         6.9304571241        0.9181182602        4.0916457848
 C         2.9749367825       -1.9435330882        2.3777813245
 C         2.6113719406       -0.9827101201        1.3604951405
 C         1.4577780885       -0.0855284386        1.5634081406
 C         0.4647320107       -0.3434893137        0.3313902551
 C        -1.0946491705       -0.7534865103        0.5679494310
 C         0.8842236298       -0.1480339826        2.9616851101
 C         1.9279963799        1.3735937967        1.3889278866
 O         3.3284102543       -0.9484091799        0.3054081737
 O         0.8250929072       -0.2158128253       -0.8007693237
 C        -1.3026764401       -2.0765277700       -0.2414492697
 C        -0.5953258798       -3.2714556025        0.5186776603
 C        -0.9040791892       -4.7778795644        0.1175742075
 C        -2.4152099362       -4.9644967428       -0.3458893434
 C        -2.8091967412       -6.1837367427       -1.1473348565
 O         0.1606812021       -3.0799809564        1.4531178996
 O        -3.2572710079       -4.1068919383       -0.0498396551
 C        -0.0299060061       -5.3490745352       -1.0677371640
 C        -0.6118624477       -5.6664935236        1.3432583188
 C        -3.8466370604       -5.7829118983       -2.2635889371
 C        -3.4315913296       -4.6981940604       -3.2058777678
 C        -4.6302958159       -4.0831364574       -4.1620842632
 C        -5.6207273316       -3.5877650238       -3.0869124433
 C        -5.0341509256       -2.6051081949       -2.1170890449
 C        -3.8876613554       -3.0046129882       -4.9986282529
 C        -5.3054298225       -5.2420789699       -4.9394852986
 O        -2.3677022682       -4.1747829386       -3.1867822775
 O        -6.6316970230       -4.2311901591       -2.8258118639
 C        -6.0001516456       -2.5276566737       -0.8262628820
 C        -5.2763138481       -1.8650518209        0.3685554739
 C        -5.8546171039       -1.9031510720        1.7942615337
 C        -5.7636401011       -0.4892186389        2.5096990247
 C        -5.6482024815        0.7660019235        1.6868462207
 O        -4.2366297859       -1.2023379465        0.2145107739
 O        -5.6788531742       -0.4527070148        3.7340480782
 C        -7.4131840669       -2.1562747284        1.9819618901
 C        -5.0538252081       -2.9436577101        2.5798360747
 C        -5.2660017374        2.0063459970        2.5348786365
 C        -5.1708387053        3.2715009165        1.7975429307
 C        -4.6018337245        4.6496782547        2.4746480218
 C        -3.2464265664        5.0510360473        1.7700703632
 C        -3.0689219814        5.4029152498        0.2963602534
 C        -5.6164373234        5.7745264766        2.3780004339
 C        -4.2875836701        4.4942195372        4.0175922639
 O        -5.6210503503        3.4899720993        0.6463354815
 O        -2.2787291969        4.9352601776        2.4860788707
 C        -1.5668817076        5.4149558355       -0.0070314385
 C        -1.0864239648        4.2898100369       -0.9039016933
 C         0.2760380077        4.4702859692       -1.7361148519
 C         0.8894087264        3.0955947309       -2.0458683678
 C         0.3185022059        2.2839576939       -3.1553272504
 O        -1.5567699519        3.1839031565       -0.8591293721
 O         1.9111714639        2.7981517739       -1.4676780629
 C         0.1006461899        5.3729385338       -3.0239515173
 C         1.1526446480        5.2389678051       -0.7995588403
 H         6.6484521693       -1.5623439676       -3.1248796283
 H         6.8633702566       -0.9004586233       -1.5774298134
 H         5.3569387445       -1.6547265180       -2.0118879890
 H         8.1813048140        2.2410589810       -0.3328594142
 H         7.0476898201        3.6629499975        0.0311669052
 H         8.3844751102        0.8972997977       -2.0267520274
 H         8.4639535349        2.4075171828       -2.9600473264
 H         8.0842095590        0.8640880982       -3.5690140867
 H         4.8067537184        2.9855463834       -3.1382786146
 H         6.1296630501        3.7482741781       -2.7032890615
 H         6.2285830337        2.7953047221       -4.3003244658
 H         7.9849489302        2.3404664983        1.9672617509
 H         6.2054868112        2.4642566400        1.8833647776
 H         5.0994169352       -2.0600136057        1.6981472661
 H         4.9001301571       -2.5101712219        3.3502790141
 H         7.2896256545       -1.6946937871        4.2249741672
 H         8.3964059898       -1.0088823765        3.2923224712
 H         7.1745933094       -1.9594326740        2.3684356873
 H         6.2816406356        1.7548410385        4.1995648866
 H         7.0350089004        0.3207542134        5.0152442023
 H         7.9234056489        1.3374889866        3.9095795840
 H         2.5019118210       -1.7262238460        3.3121945120
 H         2.7501116458       -3.0058484772        2.0959784432
 H        -1.3559438597       -0.8725698336        1.5708212392
 H        -1.8061379518       -0.0343405984        0.0423023964
 H         0.0027411723        0.5254228626        3.0315118018
 H         1.6111052035        0.1641639785        3.7250482964
 H         0.5155170375       -1.1451820911        3.1209852259
 H         2.9337883021        1.5795191413        1.8970285794
 H         1.8865566957        1.6749471544        0.3908216680
 H         1.2792749920        1.9086274697        2.0920852552
 H        -2.3970600382       -2.4358097958       -0.3478950542
 H        -0.9262816316       -1.9680280489       -1.2853557096
 H        -1.8964722271       -6.4152923507       -1.6725729608
 H        -3.0694384562       -7.0062929004       -0.5368459849
 H        -0.4485963682       -4.9456425021       -1.9863192490
 H        -0.1338432711       -6.4384374224       -1.1040334215
 H         1.0709826583       -5.0487178745       -0.9839488936
 H        -0.7349430639       -5.1762779065        2.2895393667
 H        -1.2435960180       -6.5103244050        1.3686401814
 H         0.4420410634       -6.0833453045        1.3457149428
 H        -4.7645727769       -5.6280171464       -1.7269575460
 H        -4.1510510123       -6.6479119176       -2.8400320885
 H        -4.0264052656       -2.8861867393       -1.8778221055
 H        -5.1012193477       -1.6274314671       -2.5197887658
 H        -3.7926969752       -3.2607990840       -6.0492731565
 H        -2.9535092047       -2.7831770348       -4.5325472467
 H        -4.4563176139       -2.0282796812       -4.7568798186
 H        -4.6682781863       -6.0802615468       -5.2857760484
 H        -6.1083364370       -5.6159440739       -4.2485424942
 H        -5.7701546276       -4.7523653665       -5.7720487267
 H        -6.9693337975       -2.0865025518       -1.0190872490
 H        -6.2525644346       -3.6298291034       -0.5111602349
 H        -4.6610722861        0.6478597005        1.1127691593
 H        -6.3985655017        0.9759617882        0.9258355344
 H        -7.9504459803       -1.2963399750        1.9723858746
 H        -7.4657643349       -2.7486241180        2.9639572313
 H        -7.7764220842       -2.9164670003        1.2889039391
 H        -3.9230949617       -2.9418812611        2.4279697943
 H        -5.1413650499       -2.7753521271        3.6595819682
 H        -5.4452799212       -3.9290768133        2.3452959720
 H        -4.4048381739        1.8980965529        3.1652637095
 H        -6.0485187090        2.2470578679        3.2391619279
 H        -3.6458787090        4.7030520163       -0.3728564420
 H        -3.5727635084        6.3338018978        0.0845830364
 H        -5.2180424273        6.7171872198        2.7490130677
 H        -6.4138480324        5.5971135772        3.0690603031
 H        -6.0238287962        5.8352396484        1.3674020393
 H        -3.8251067427        5.3570498481        4.3603930606
 H        -5.1912518344        4.3153740003        4.5636992936
 H        -3.5454043272        3.7208371114        4.1179157771
 H        -1.3376602090        6.3677503195       -0.4794977526
 H        -0.8458059296        5.4761840127        0.9151217717
 H        -0.7376077134        2.3143399203       -3.0245955791
 H         0.5450415557        2.7155485088       -4.1699765211
 H         0.7530297892        1.2668444264       -3.1454061315
 H        -0.6289060633        6.1759399455       -2.8352445466
 H        -0.3398242523        4.7448498955       -3.8364724090
 H         0.9990619838        5.7720007055       -3.3743974160
 H         0.9797063594        6.3003848892       -0.8475461293
 H         1.1852779279        4.8987365802        0.2102111639
 H         2.1662353313        5.3172375613       -1.2120516191
 Na        2.8150467077        0.5889930772       -1.2969170900
