155

 C       -10.0847883264       -3.4919517567        2.2539555479
 C        -9.4660097385       -4.6416892513        1.5405292576
 C        -8.5676949113       -5.7218109279        2.4117261317
 C        -7.0250095856       -5.4819047791        2.1025425597
 C        -6.8642472227       -5.2342981783        0.6131971098
 C        -8.7443269831       -5.6031847376        3.9268022934
 C        -8.8598236625       -7.1255706795        1.8940462994
 O        -9.6487692970       -4.8996167814        0.3659121314
 O        -6.1218712727       -5.6468958769        2.9375070653
 C        -5.7862061217       -4.1171384388        0.4047065768
 C        -4.7388794662       -4.0154276040        1.5568829913
 C        -4.8343934530       -2.9886735055        2.7739438730
 C        -4.5396354178       -1.6219730998        2.0794825226
 C        -3.1068595192       -1.0842845708        1.8335684417
 O        -3.6985650063       -4.5689262000        1.4764554069
 O        -5.4904191356       -0.9385496083        1.7116978101
 C        -6.1924344906       -2.8126357504        3.4090907321
 C        -3.8914376878       -3.4816382853        3.7987348702
 C        -3.2320179315        0.0608339154        0.8293232568
 C        -1.8455038837        0.5545275192        0.3348226371
 C        -1.8351835437        1.3931090385       -0.9897402913
 C        -1.5083794990        2.8015073906       -0.5853880263
 C        -2.2116057709        4.0598625650       -1.2070975585
 C        -0.5372149996        0.7495371883       -1.7779409512
 C        -3.0546797712        1.1647094883       -1.9243035587
 O        -0.7935697539        0.2106122542        0.8375834296
 O        -0.5983496531        3.1131861032        0.1241119017
 C        -2.3283646307        5.3040846906       -0.1684422743
 C        -3.4626703225        5.0935004123        0.8879256365
 C        -3.5304254458        6.0760392983        2.0711211523
 C        -2.7560609830        5.3919152569        3.2902485737
 C        -3.5467199975        4.1488004647        3.9174537511
 O        -4.2710222450        4.2263108335        0.7675097465
 O        -1.6217358375        5.6380197817        3.6120815660
 C        -2.7940143958        7.4874022651        1.8650294992
 C        -4.9493896679        6.4042460649        2.5424921363
 C        -2.6505475286        3.2498266198        4.8613403074
 C        -1.4165342298        2.6181836621        4.1647323964
 C        -0.3350583123        1.8450098329        4.9896127280
 C         1.0253304362        2.0140884676        4.1333203788
 C         2.0442370937        3.1448060396        4.4570097424
 C        -0.1943942722        2.2936529448        6.4611092213
 C        -0.7695309791        0.4035083000        4.9481800725
 O        -1.3038207569        2.7251641121        2.9462693040
 O         1.3135178185        1.1737265322        3.3260839002
 C         3.4039724928        2.7967963783        3.8433130644
 C         3.3771640344        3.0857043022        2.3009559776
 C         4.3827302963        2.4095145816        1.3603491689
 C         3.8533718440        1.2600963071        0.4441327876
 C         4.9693439093        0.2900565574       -0.0778761781
 O         2.5187918647        3.8924315755        1.8569677528
 O         2.6667268999        1.0740652378        0.1020924783
 C         5.0271583167        3.4764380256        0.4630251027
 C         5.6359826316        2.0589660492        2.2679885319
 C         4.4608879833       -0.2544177238       -1.4272995492
 C         5.3512299952       -1.1873900195       -2.2617071400
 C         4.6216088055       -1.9009982954       -3.4891037427
 C         5.1514963209       -1.1841140976       -4.8643176289
 C         6.4808795972       -1.4131907444       -5.5640478129
 C         5.2689789316       -3.3149371991       -3.3686226265
 C         3.1349233529       -1.9787108615       -3.4250037252
 O         6.4688834115       -1.4732296203       -2.0200145811
 O         4.4029386750       -0.3293727374       -5.3171030738
 C         6.4190483866       -2.1259808938       -6.9631568810
 C         6.7490781853       -1.2875896232       -8.2149430260
 C         6.6092398062       -1.9518499002       -9.5904321461
 C         7.5716078008       -3.1746313525       -9.6211107578
 C         8.8326212846       -3.1842816629      -10.3738034106
 O         7.3312063932       -0.2545000434       -7.9827275690
 O         7.3085721575       -4.0590163829       -8.8476215088
 C         5.1150127136       -2.5100746606       -9.7868066301
 C         6.7814159236       -1.0448573310      -10.8167338890
 H       -11.1068293691       -3.6895770192        2.6043310394
 H        -9.4843817619       -3.2654139516        3.1463996918
 H       -10.1918834859       -2.5469312289        1.7203297051
 H        -6.2769612905       -6.2446249068        0.3956361645
 H        -7.7639332201       -5.2195836277        0.0445900851
 H        -9.8038617088       -5.9524520949        4.0826886306
 H        -8.7557892110       -4.5910212039        4.2556760849
 H        -7.9900317527       -6.0965456249        4.4777305905
 H        -9.8984544945       -7.2273211926        1.9253429173
 H        -8.5263012709       -7.2703079553        0.8522371693
 H        -8.5396613604       -7.9563680724        2.3867873002
 H        -5.2376115168       -4.2785900523       -0.4586207572
 H        -6.1772457747       -3.0865682301        0.4452409950
 H        -2.6105180032       -0.9486432948        2.8465482664
 H        -2.4965038824       -1.8072915770        1.4075932269
 H        -6.3243943804       -1.9308441059        3.9769243161
 H        -6.3409346624       -3.6074684367        4.1225507852
 H        -6.9123832161       -2.7277887193        2.5605888110
 H        -4.1091228360       -4.5791116649        3.8597262169
 H        -2.8220263485       -3.3083667839        3.4638061765
 H        -3.8820696040       -3.1851873975        4.8229320844
 H        -3.6989464807        0.9010178925        1.2993073110
 H        -3.7534587575       -0.2602203897       -0.0423546904
 H        -1.6284311791        4.3517134338       -2.0606646557
 H        -3.2221197302        3.6707109454       -1.5552211190
 H         0.4412146229        1.0823737443       -1.2154034894
 H        -0.5167679613        1.1138655817       -2.7673007523
 H        -0.8354309331       -0.3171981424       -1.8922503324
 H        -3.2403063531        0.1284637129       -2.0673860215
 H        -3.9193474914        1.6427548602       -1.6197435031
 H        -2.9372929970        1.5111291155       -2.9408335524
 H        -1.3137495779        5.4927837558        0.2804448167
 H        -2.4870948965        6.1890739860       -0.7053869023
 H        -4.2928720866        4.6135135016        4.5451139182
 H        -4.1672672123        3.7370442680        3.1468638301
 H        -1.7096478378        7.4619479513        2.0110858446
 H        -3.2351370847        8.3183236207        2.4816766303
 H        -2.9693686420        7.5936611534        0.7887417339
 H        -5.3959420539        7.0675860280        1.8542503667
 H        -5.5936074353        5.5253591645        2.6082980760
 H        -4.8895037661        6.9611408687        3.5155827615
 H        -3.3221761374        2.5610470950        5.3003963966
 H        -2.3650502826        4.0160892459        5.6270409258
 H         1.6921997287        4.0782022175        3.9157856458
 H         2.1409344108        3.4088068982        5.4597187823
 H         0.4885262740        3.1260396111        6.5192760185
 H         0.0091876700        1.4801814742        7.1043744386
 H        -0.9947135524        2.8791006378        6.9086363329
 H         0.1245745290       -0.2046742106        5.1859334662
 H        -1.5631630520        0.1956322791        5.7292410697
 H        -1.0533396797        0.0671291327        3.9323193500
 H         4.2276022785        3.2837861549        4.3720140690
 H         3.5898863963        1.7650827880        3.8991603471
 H         5.8860243611        0.8323524114       -0.1695018709
 H         5.1153179324       -0.5132750394        0.6560361321
 H         5.8298032157        4.0664132950        0.7499420095
 H         4.2565941075        4.2146740175        0.1103945928
 H         5.3471827126        2.9769078821       -0.4879322375
 H         6.4310369975        1.7993541026        1.5905685196
 H         5.9974475393        2.9615115177        2.8332632128
 H         5.3887573512        1.2417053128        2.8253968680
 H         4.1678319747        0.5282516946       -2.1254667261
 H         3.5196920951       -0.6498719392       -1.2995739046
 H         6.8565497108       -0.4107766204       -5.8035737944
 H         7.2548427503       -1.9258401779       -4.8945782966
 H         6.3265571037       -3.3906956209       -3.1861794256
 H         5.2994706941       -3.8097679114       -4.4035663287
 H         4.7759367869       -3.8713119111       -2.5401915324
 H         2.6538713712       -1.0252110248       -3.2197969566
 H         2.9214945420       -2.6117905735       -4.3287713687
 H         2.9181113503       -2.6248661137       -2.6503823396
 H         7.2224107777       -2.9330962873       -6.8784298923
 H         5.4295584456       -2.6495298696       -7.1274512390
 H         9.4847052550       -2.2827162072      -10.4176187119
 H         9.4494843675       -4.0032544398      -10.0170057095
 H         8.6033762498       -3.3641071726      -11.4019053594
 H         4.3160256024       -1.8528902801       -9.4963203784
 H         4.9476033279       -3.4897672684       -9.3025195031
 H         4.9329316606       -2.7583377121      -10.7912469335
 H         6.7556896051       -1.6772776285      -11.7095049819
 H         6.0851604047       -0.2823878428      -10.5753419397
 H         7.7777605576       -0.4912876350      -10.8946557672
 Na        0.7066929806        1.8955090377        1.3661665493
