155

 C         6.8042006768       -0.8754323395       -2.5939197339
 C         5.8552712916        0.2541506190       -2.2721751246
 C         6.3185356664        1.7532706812       -2.2131517524
 C         5.9240178166        2.1714525686       -0.7830988341
 C         6.9817765314        2.7386759025        0.0987905325
 C         7.8870576686        1.8101708643       -2.4994621556
 C         5.5041792779        2.5675069606       -3.3193688476
 O         4.6351006454        0.0484423694       -2.1748336869
 O         4.7358136334        2.1755360086       -0.4477615469
 C         6.8929641674        2.2852681992        1.5430272304
 C         6.8827568632        0.7209074309        1.5707128866
 C         7.1412599119        0.0173974877        2.9742800236
 C         5.5519613072       -0.3638195174        3.3671558420
 C         4.9261267892       -1.5908026759        2.6612060110
 O         6.7679009066        0.2189705263        0.4439364532
 O         5.0473822590        0.1098600066        4.4075916442
 C         8.0912747668       -1.2237512062        3.0323743228
 C         7.5367791643        1.0426791703        4.0200607841
 C         3.4090725553       -1.4614351068        2.7714413964
 C         2.8392343790       -0.4622239241        1.6921689923
 C         1.2511690906       -0.0464598051        1.8444701896
 C         0.5132623956       -0.5835665004        0.5207667089
 C        -0.9246528636       -1.1141260288        0.5710094739
 C         0.6305818818       -0.5824131845        3.0836460168
 C         1.1999225398        1.5971474223        1.7645890611
 O         3.4679300802        0.0488913610        0.7569628492
 O         0.9398745470       -0.3880938442       -0.5700826151
 C        -1.1475249261       -2.3985262861       -0.2021210031
 C        -0.7325596545       -3.6247729340        0.6130304007
 C        -0.7822557246       -5.1300397502       -0.0724835002
 C        -2.2872615603       -5.2551069529       -0.4325857793
 C        -2.7066222842       -6.4181607459       -1.3575190074
 O        -0.3721112145       -3.5163975776        1.7776427208
 O        -3.1402783366       -4.4527305365       -0.0293527892
 C         0.1437139951       -5.1238680005       -1.3164239798
 C        -0.3845435919       -6.2137952815        0.9375602119
 C        -3.8603851626       -5.9409324659       -2.3609101385
 C        -3.4049079351       -4.7473663091       -3.1481457681
 C        -4.3820739214       -4.2413517146       -4.3251032672
 C        -5.6098401496       -3.6282175574       -3.5470627322
 C        -5.3124418539       -2.6093677233       -2.4364396485
 C        -3.6362284512       -3.0806727124       -4.9729462538
 C        -4.7492263309       -5.4212375999       -5.1817299979
 O        -2.3789374959       -4.1038749207       -2.8443636166
 O        -6.7316506060       -4.0391883103       -3.6896457113
 C        -5.8886271202       -2.8610820148       -1.0559404716
 C        -5.4806836565       -1.7796773139       -0.0097882832
 C        -6.1410914190       -1.9017453786        1.3719103155
 C        -6.0218212598       -0.6114478469        2.2003381254
 C        -5.7358289796        0.8745632658        1.5510122899
 O        -4.6174031959       -0.9214291584       -0.2350665509
 O        -6.3054904463       -0.5852100428        3.3692928732
 C        -7.6314289922       -2.3337732123        1.5357820893
 C        -5.2394308971       -2.9114951929        2.1142489528
 C        -5.2714001579        1.9704090074        2.5013440849
 C        -5.3573796222        3.3851153475        1.9151266924
 C        -4.5020655467        4.5733480669        2.6244355016
 C        -3.2020943034        4.7871331178        1.7292231364
 C        -3.3804704514        5.3669803586        0.3145360794
 C        -5.3830279465        5.8551934709        2.7702050686
 C        -4.0069986739        4.2677353030        4.0443017737
 O        -6.0753680972        3.6534928976        0.9515055563
 O        -2.0925867596        4.4649498979        2.1249921875
 C        -2.0244529253        5.6106101137       -0.4193419953
 C        -1.2235928290        4.3389875845       -0.9124889361
 C         0.0478028111        4.5961097283       -1.7454697900
 C         0.7592516948        3.1647066534       -2.0478939345
 C         0.0357148330        2.0974591868       -2.7113878863
 O        -1.6537301847        3.1984228993       -0.7480918519
 O         1.9312570036        3.0813511234       -1.7444552880
 C        -0.2920679045        5.1938647743       -3.1221177391
 C         1.0737061685        5.5269137713       -0.9669306186
 H         7.5047204333       -1.1593301645       -1.8655309338
 H         6.2610843754       -1.8168097578       -2.7777581656
 H         7.4698408310       -0.7289317244       -3.4943197228
 H         7.9821567695        2.6302548626       -0.3281743968
 H         6.7519121728        3.7878546850       -0.0354639071
 H         8.4539393806        1.1783658466       -1.8007497341
 H         8.3870380686        2.7964266736       -2.2939748259
 H         8.1063486967        1.6078175093       -3.5417539192
 H         4.5018229258        2.0762969635       -3.4312929797
 H         5.4806510654        3.6831421575       -3.1032095267
 H         5.9039638149        2.5891776709       -4.3009352104
 H         7.8325309633        2.5460235815        2.1320983096
 H         5.9612744123        2.8197359849        2.0721992620
 H         5.2979374864       -1.8439676254        1.6173331349
 H         5.2322167584       -2.5543880228        3.1355448516
 H         7.6645612360       -1.8538921417        3.7813024469
 H         9.0754523013       -0.8317237960        3.1848430281
 H         8.1140925323       -1.8138222557        2.0702023844
 H         6.9130769073        1.9415410387        3.9921334026
 H         7.3792005460        0.6864041723        5.0432178121
 H         8.6028071070        1.3949956840        3.9507320488
 H         3.2018191198       -1.0223471498        3.7259996507
 H         2.9074695748       -2.4567384733        2.7877916847
 H        -1.2968415715       -1.0977131240        1.5938476061
 H        -1.5177291379       -0.4063714232       -0.0556306053
 H        -0.3920522524       -0.2135490871        3.2903494432
 H         1.3515214739       -0.3628558585        3.9947156347
 H         0.5457099297       -1.6583991914        3.1057417441
 H         2.0992973128        1.7986385381        2.2962154028
 H         1.2627112893        2.1417044845        0.7932301237
 H         0.3650877160        1.9244075181        2.2387783324
 H        -2.2871503628       -2.5423730026       -0.4494855115
 H        -0.6153254972       -2.3840123037       -1.1374863356
 H        -1.7794229024       -6.7571931597       -1.9104196172
 H        -3.0057570734       -7.1655301999       -0.6336829502
 H        -0.4314481189       -4.5810722986       -2.0734327473
 H         0.4401633298       -6.1270525791       -1.6163816002
 H         1.0383613456       -4.5275631100       -1.0600705814
 H        -1.3081261035       -6.5615826256        1.4666524975
 H         0.1202658720       -7.0679182385        0.5001636557
 H         0.2906140799       -5.7615170107        1.6539004887
 H        -4.7435493353       -5.6981713424       -1.7141684236
 H        -4.2464267995       -6.6374602055       -3.1070837815
 H        -4.2385126497       -2.4906369287       -2.2982274588
 H        -5.5081984695       -1.5844927457       -2.8655591003
 H        -4.4893692546       -2.4525982025       -5.5098957446
 H        -2.9099701622       -3.2836166908       -5.7514252382
 H        -3.2572051346       -2.4570864807       -4.1860791788
 H        -3.9246634876       -5.7087759428       -5.8833035265
 H        -5.3460566133       -6.1761040674       -4.6300005341
 H        -5.5155149714       -5.0207527711       -5.7961644466
 H        -6.9314949345       -2.8996354620       -1.2156906855
 H        -5.3914333694       -3.7490962133       -0.6686651925
 H        -5.0142845765        0.8158412213        0.6869232788
 H        -6.6638655981        1.2003198222        1.0654193256
 H        -8.3488823659       -1.4126273632        1.7906823958
 H        -7.5824498026       -2.8470860303        2.4323992865
 H        -7.9826006047       -2.8921114081        0.6832065282
 H        -4.1806872035       -2.7147955750        2.1251664577
 H        -5.5816399966       -2.8603422169        3.1972259883
 H        -5.3082771188       -3.9454741219        1.8567783016
 H        -4.2294660286        1.7514412701        2.8720013873
 H        -6.0073672362        1.9879178263        3.3332233055
 H        -4.0103604931        4.7427387598       -0.3394659509
 H        -3.9120773613        6.2652441182        0.4717849540
 H        -5.2725201366        6.2616045002        3.7903205701
 H        -6.4492299375        5.5116110077        2.4215969976
 H        -5.0113320863        6.6294522709        2.0460325981
 H        -3.6182945629        5.2285125074        4.4579847299
 H        -4.8649170081        3.8365744275        4.6955846718
 H        -3.2239050296        3.5094407537        3.9960099509
 H        -2.1435963128        6.2610788467       -1.2278720359
 H        -1.3455341927        6.0372402081        0.4041485399
 H         0.0902467653        1.3010260888       -1.9942597874
 H        -0.9137536676        2.4059126290       -3.0773517184
 H         0.6445808050        1.7141933354       -3.5706597412
 H        -1.1226016585        5.9655516025       -3.0493877941
 H        -0.6059052417        4.4015683491       -3.7933817647
 H         0.5242707117        5.6991967457       -3.5727845536
 H         0.8016431602        6.5529515455       -0.9702103860
 H         1.2841718334        5.2759640934        0.0389427701
 H         2.0554212130        5.1744650828       -1.4193668420
 Na        2.7785445557        0.9471064122       -1.3329208758
