155

 C         7.0813995858       -0.8475033320       -2.0127245454
 C         5.9162326185        0.1396400350       -1.9092066553
 C         6.1110220546        1.7785748647       -2.1322842377
 C         5.9857418628        2.4851754694       -0.8116904438
 C         7.1505017338        2.9387831865        0.1521905989
 C         7.4693066883        2.1666361690       -2.7895918664
 C         5.0191130605        2.1881769192       -3.0816825370
 O         4.8618919823       -0.2359530937       -1.4743618314
 O         4.8593814614        2.6928610995       -0.3505475885
 C         6.7931888708        2.3408368648        1.5273493876
 C         7.1653099630        0.8206047473        1.6220697830
 C         7.2021709034        0.0986945579        3.0017194631
 C         5.6766697332       -0.3353588508        3.5743831733
 C         4.9251143194       -1.3426999824        2.6841943925
 O         7.3677038071        0.2279264294        0.5750776815
 O         5.2668102692        0.2120290402        4.5676869423
 C         7.8261292975       -1.2058360932        2.6603816544
 C         7.9554533220        0.7612077170        4.1050966733
 C         3.4462889501       -1.1763424390        2.9111038792
 C         2.7588262800       -0.1163048964        1.9290497405
 C         1.0813908144       -0.0813025904        2.0515328839
 C         0.4525693374       -0.5212160206        0.6519636380
 C        -0.9515926686       -1.1102634297        0.6059104464
 C         0.5670588441       -0.7779803270        3.2590898560
 C         0.7550207266        1.4264106284        2.1622335657
 O         3.4336271398        0.4480346943        1.0818261564
 O         1.1537656894       -0.3134980365       -0.3796880429
 C        -1.0701969874       -2.4706463708       -0.1870245524
 C        -0.4921077219       -3.6625159531        0.5900896452
 C        -0.5902802886       -5.1883397229       -0.0932508685
 C        -2.1246722497       -5.5454537798       -0.5039678478
 C        -2.4022935941       -6.5518205478       -1.6287042800
 O         0.0345695315       -3.6131120109        1.6943718227
 O        -3.0613027474       -5.1406503180        0.1910165883
 C         0.1982601629       -5.3429573322       -1.4186095365
 C        -0.1400184855       -6.1625069410        0.9574803177
 C        -3.6152518304       -6.1963370979       -2.6155278497
 C        -3.2711753277       -4.7919283667       -3.4618011466
 C        -4.3070221068       -4.2268332000       -4.4529255419
 C        -5.4761618560       -3.6124705864       -3.5469667182
 C        -5.1885688417       -2.2620637076       -2.8685951571
 C        -3.5433623987       -3.1191493411       -5.2957981777
 C        -4.7569033531       -5.3786988150       -5.3751303483
 O        -2.3080404197       -4.2292369446       -3.0697640285
 O        -6.5115500553       -4.2038890962       -3.3619924256
 C        -6.2608003551       -2.0686360430       -1.6425317894
 C        -5.5177654418       -1.6318797975       -0.3365605724
 C        -6.2196378661       -1.8005327651        1.0407094191
 C        -6.0021598868       -0.4314435080        2.0700956586
 C        -6.1047141268        0.9795886325        1.4922954686
 O        -4.3972628084       -1.0854030751       -0.3023323295
 O        -5.7551432813       -0.5758822853        3.2287899897
 C        -7.7388160092       -2.0920099421        0.8632901203
 C        -5.5716280526       -3.0600955512        1.6432357271
 C        -5.3842294992        1.9382041297        2.3880952089
 C        -5.3660544925        3.4009525894        1.9487413051
 C        -4.4886116302        4.4500672875        2.6850844020
 C        -3.2783377877        4.5552735665        1.7099006199
 C        -3.6164206661        5.2055575407        0.3290551778
 C        -5.2675606139        5.7091577247        2.9175386422
 C        -3.9803149959        3.9593417251        4.0398057543
 O        -6.0324908822        3.8393772742        0.9674487148
 O        -2.1827714034        4.0846970901        2.0199103312
 C        -2.2534403139        5.5698370961       -0.3714221142
 C        -1.5167701552        4.3284116064       -0.8835974700
 C        -0.2765250330        4.5277655955       -1.8291391047
 C         0.5305951018        3.1614412366       -1.8761608079
 C         0.1327772551        2.0941419238       -2.8091575552
 O        -1.8958765794        3.2007282297       -0.6647597222
 O         1.4767655001        3.0570934863       -1.1279457788
 C        -0.8673022533        4.7944110517       -3.2754076319
 C         0.6937926860        5.7328528420       -1.4623496535
 H         6.7414321783       -1.6981426173       -2.5029362564
 H         8.0724973236       -0.6250767672       -2.4498126626
 H         7.3622890733       -1.2662277859       -0.9942143598
 H         8.1656127038        2.6908192586       -0.1826312983
 H         7.3003886914        4.0521518065        0.2732067773
 H         8.3357640128        1.9875056900       -2.1377682539
 H         7.3667279016        3.2475020265       -2.8906617222
 H         7.6444819464        1.8280932649       -3.8732095988
 H         3.9459142982        2.1266527872       -2.7779875032
 H         5.2605902808        3.2754772022       -3.2186639303
 H         4.9091825672        1.5745435732       -4.0659084430
 H         7.1194998208        2.8965100799        2.3267244816
 H         5.7157356918        2.3938642412        1.6638820496
 H         5.1445572058       -1.1711120306        1.6524970931
 H         5.4425870873       -2.3047273656        2.8456344583
 H         7.9662847408       -1.9426159264        3.4494188376
 H         8.7863531330       -0.9926639957        2.3046568914
 H         7.2714619022       -1.6088065341        1.8122404214
 H         7.6484565162        1.7743631177        4.1010362520
 H         7.8198941685        0.3663144398        5.1341324848
 H         9.0237103899        0.7714562024        3.9861208078
 H         3.2731908508       -0.8633930341        3.9794234251
 H         2.8477454996       -2.0799134475        2.7849909883
 H        -1.3091502552       -1.1364063156        1.5963298408
 H        -1.6822660955       -0.3891307406        0.1395230591
 H        -0.4234038127       -0.4791827114        3.6408551532
 H         1.2126013640       -0.5018314387        4.1207396262
 H         0.5749641008       -1.8351072680        3.3197671620
 H         0.9796408760        1.8231349144        3.2158120031
 H         1.1496421048        2.0270272259        1.3582279000
 H        -0.3221779622        1.5940121673        2.1059595856
 H        -2.1411878624       -2.7794857806       -0.2255175354
 H        -0.6657548291       -2.1916696819       -1.2278031059
 H        -1.5017712779       -6.7359885276       -2.1054406607
 H        -2.6250499895       -7.4896263979       -1.1141763276
 H        -0.3945771895       -5.0170417233       -2.2434005402
 H         0.4981228819       -6.3768066097       -1.6062216543
 H         1.1676926651       -4.8419817587       -1.2758110132
 H        -0.2632552626       -5.6930597983        1.8908508689
 H        -0.6967377608       -6.9931838216        0.8442649371
 H         0.9410666826       -6.4053336158        0.8495104982
 H        -4.3863580381       -5.8039979975       -1.9878182335
 H        -3.9792032750       -7.0383820751       -3.2924818088
 H        -4.1709429668       -2.2983561492       -2.4284578359
 H        -5.1932095085       -1.4967685505       -3.5774930598
 H        -2.7516594842       -2.7001865540       -4.6446600340
 H        -4.0892195033       -2.1951856596       -5.4988065275
 H        -3.1483742433       -3.3732952318       -6.3451732451
 H        -5.7952966228       -5.4810310777       -5.1153805402
 H        -4.8350157881       -5.0445642694       -6.4020346935
 H        -4.1451211377       -6.2950488205       -5.4193810150
 H        -7.0896627364       -1.3181167161       -1.8265808097
 H        -6.7697900300       -3.0678994410       -1.3740518456
 H        -5.6351418424        0.8165055008        0.4877254665
 H        -7.1738063997        1.2453286277        1.4157293039
 H        -8.0674640463       -1.2082259056        0.2956971938
 H        -8.1616923330       -2.1708737708        1.8612980731
 H        -8.0567613564       -2.9838147573        0.4296977080
 H        -4.4708978343       -3.0045971510        1.6393087066
 H        -5.9015736990       -3.3279970375        2.6018839283
 H        -5.9090606438       -3.9750717063        1.1801784198
 H        -4.4109808452        1.4948276023        2.4700486048
 H        -5.7640209730        2.0062403969        3.4173493594
 H        -4.1567474593        4.4745933248       -0.2483068409
 H        -4.1761921143        6.1569414875        0.4960128457
 H        -5.9395604144        5.4512232339        3.7849297266
 H        -5.7652354023        6.1707071892        1.9987493639
 H        -4.4440502130        6.4492821531        3.1503843673
 H        -3.2423773366        4.6823261306        4.4251621413
 H        -4.7533357060        3.7981380341        4.8358077763
 H        -3.3413429586        3.0471483391        3.8627274745
 H        -2.4670099387        6.3250941161       -1.2128101693
 H        -1.5751857299        5.8598855952        0.4419081866
 H         0.8812780138        1.3566112374       -2.5819097009
 H        -0.9111918911        1.6789544446       -2.6817827676
 H         0.4198223805        2.3600532917       -3.8034436916
 H        -1.5797071889        5.6203328440       -3.3470633030
 H        -1.3957118168        3.8501444507       -3.6198823541
 H        -0.0499198551        4.9713166456       -3.9740646062
 H         0.3470161678        6.5642848622       -1.9876211533
 H         0.8055595127        5.8813252521       -0.4369048853
 H         1.5716381027        5.6353879742       -2.0768670970
 Na        2.7764303804        1.2528817706       -1.0419404765
