155

 C        -9.9715769937       -3.4857597256        2.4655102805
 C        -9.3563136319       -4.6993372027        1.6376686186
 C        -8.4943305349       -5.8444317433        2.3195496291
 C        -6.9793674710       -5.5332110455        2.0205396923
 C        -6.3964735958       -5.3255650763        0.5212522282
 C        -8.7664451500       -5.8979961136        3.8547710197
 C        -8.8353682468       -7.2612594182        1.6686522723
 O        -9.4106697755       -4.7725431619        0.4284275035
 O        -6.1628370468       -5.5837720213        2.8726742144
 C        -5.5714631542       -4.0607049370        0.3579678146
 C        -4.4706902898       -4.1329533202        1.4545335129
 C        -4.7777367581       -2.9614510401        2.6405073171
 C        -4.6584096051       -1.5728529909        2.0456178490
 C        -3.1990903665       -1.1341555808        1.7298894488
 O        -3.5019210923       -4.9266619971        1.3415154896
 O        -5.6174855837       -0.8902207334        1.7331412260
 C        -6.2460056277       -2.9496596778        3.1233944725
 C        -3.7694799066       -3.1988409806        3.7584671841
 C        -3.2737736614        0.1546219810        0.9583372615
 C        -1.9073038006        0.4648616134        0.2932124908
 C        -1.8100290133        1.4488704343       -1.0341814770
 C        -1.5616664594        2.9424712764       -0.5457639498
 C        -2.1914908547        4.1403412958       -1.1466621923
 C        -0.6225154229        0.9606125292       -1.9761768046
 C        -3.1384447845        1.4266902112       -1.7536272988
 O        -0.8620181132        0.0901152340        0.7828422123
 O        -0.6715994115        3.1625933501        0.2737387284
 C        -2.0915674635        5.2471396744       -0.1254828133
 C        -3.2515236358        5.1467587348        0.9118092594
 C        -3.3897644273        6.1127923444        2.1759268066
 C        -2.6138315187        5.4083747597        3.3356433481
 C        -3.3151323133        4.2218345399        4.0181876936
 O        -4.0499701003        4.2146594925        0.8276786002
 O        -1.5229462214        5.7613643745        3.7227216558
 C        -2.6670496115        7.4267283252        1.7802281254
 C        -4.8080124648        6.3672111560        2.6051852904
 C        -2.3411313766        3.5367502953        4.9062465228
 C        -1.3812573071        2.7380206394        4.1726888846
 C        -0.3506251385        1.9268959276        5.0466884887
 C         1.0724460368        2.0881346519        4.3779996007
 C         2.0363707548        3.3037275266        4.5587398663
 C        -0.3960052789        2.3319023976        6.5202687292
 C        -0.7146148210        0.4209989806        4.8547822787
 O        -1.4032884532        2.5908492506        2.9900064241
 O         1.3360429824        1.2632297562        3.4834175051
 C         3.3693090034        2.9832809018        3.8424861906
 C         3.3355680633        3.1296842839        2.2835302253
 C         4.6346943248        2.5213690757        1.4149211573
 C         4.0786386472        1.4002895189        0.5220989278
 C         5.0329963898        0.4923442328       -0.3410725237
 O         2.4929197911        3.6593328085        1.6856038985
 O         2.9260228171        1.1645212797        0.5186738452
 C         5.0022612178        3.6534213268        0.4336638356
 C         5.7863904261        1.9129732420        2.2882537147
 C         4.3978712884       -0.1259212868       -1.5977256004
 C         5.2234854035       -1.2659142390       -2.2471764420
 C         4.6235359405       -2.0782047616       -3.4508884206
 C         4.9915547713       -1.1910781551       -4.7646671852
 C         6.2264599232       -1.4937752665       -5.6006087747
 C         5.0682175190       -3.5054055454       -3.6200382174
 C         3.1186138448       -1.9317301112       -3.4944722959
 O         6.4025281509       -1.3573394302       -1.8558248221
 O         4.2027993793       -0.4032118233       -5.2053638729
 C         5.7632331727       -1.9772417633       -7.0418741345
 C         6.4978528269       -1.4075178605       -8.1852939995
 C         6.2336670346       -2.1013772637       -9.5807139261
 C         7.2323716921       -3.2888512089       -9.5961046070
 C         8.4534975010       -3.3181325303      -10.4206557977
 O         7.2745822723       -0.4781371551       -8.0998391611
 O         7.0670572310       -4.2951655318       -8.8638919668
 C         4.8617711349       -2.5747291365       -9.7139397776
 C         6.6851463694       -1.0277942245      -10.6184619801
 H       -10.8820161929       -3.7077961417        3.0037702547
 H        -9.2847719745       -2.9187437982        3.0826181516
 H       -10.3508379212       -2.7597582222        1.7514835837
 H        -5.8565219368       -6.1583045599        0.2389429167
 H        -7.2314349013       -5.2459590152       -0.2555297340
 H        -9.6675372828       -5.3633193106        4.0642879282
 H        -7.9196242466       -5.5671044543        4.4912623806
 H        -8.8981077723       -6.9789299447        4.1010358110
 H        -9.7949615940       -7.6843633695        2.1365034068
 H        -8.8923905343       -7.3462195588        0.6216547714
 H        -8.1078500276       -8.1072618946        1.9203228750
 H        -5.0413136736       -4.1773458958       -0.6601692359
 H        -6.1832084935       -3.1512758978        0.2915647058
 H        -2.6798946552       -1.1466147689        2.6512887079
 H        -2.6802702592       -2.0012323676        1.1309376474
 H        -6.5400187515       -1.9260815455        3.3880687183
 H        -6.2874742919       -3.5460132411        4.0629231984
 H        -6.8860617864       -3.2134724407        2.3627869567
 H        -4.1066145627       -3.8982880812        4.5473790688
 H        -2.7744209797       -3.5160127508        3.4642511668
 H        -3.5571424417       -2.2598154343        4.3258276139
 H        -3.4769040617        0.9568908493        1.7329484682
 H        -4.0510543924        0.0527735901        0.1324939630
 H        -1.5927699604        4.3305626790       -2.0991122142
 H        -3.2103072419        3.8909809823       -1.3914771508
 H         0.1940171984        0.7492812582       -1.3723471954
 H        -0.4334964004        1.7881920327       -2.7666866427
 H        -0.9761873251        0.1513411307       -2.5788475484
 H        -3.3707413876        0.4296919103       -2.2038310047
 H        -4.0655308686        1.8596560088       -1.2760984837
 H        -3.0496699412        1.9902230986       -2.6906641967
 H        -1.1374096408        5.2468179188        0.3420314863
 H        -2.1169372766        6.2580453701       -0.6281080731
 H        -4.2699615233        4.5612669016        4.4733945483
 H        -3.6725791181        3.5988070084        3.1571893420
 H        -1.6901898533        7.2329048267        1.3491608156
 H        -2.4925046690        7.9122410828        2.6903931433
 H        -3.2657902561        8.0078086320        1.1173446624
 H        -5.3189493701        7.0172912674        1.8637503887
 H        -5.2710976819        5.4036443719        2.4498951171
 H        -4.8914127756        6.7166065926        3.5788245394
 H        -2.9545652288        2.8914029035        5.6117362043
 H        -1.8389236086        4.3203076780        5.4587162712
 H         1.6627256614        4.2529177845        4.2484685916
 H         2.2086982892        3.3521019205        5.6975714890
 H        -0.6019176849        3.3519531648        6.8343344485
 H         0.4565143792        1.7853034357        6.9352724123
 H        -1.2157134118        1.8625116160        7.1008239762
 H        -0.0676349828       -0.2196052255        5.4487904266
 H        -1.7876247272        0.2849112759        5.0598079828
 H        -0.6178449240        0.1440380961        3.7995742391
 H         4.2167887677        3.6003262687        4.1576590461
 H         3.7099971081        1.9425583342        4.1066423422
 H         5.9909994237        0.9702090650       -0.6267756358
 H         5.3157227352       -0.2660953642        0.3732560097
 H         5.4139054031        4.5658057715        0.9456915681
 H         4.1693087550        3.9334041384       -0.1409642018
 H         5.8439851928        3.4506134721       -0.1783354667
 H         6.5909580638        1.5441592497        1.5916488862
 H         6.1755104468        2.6615003610        2.9049198496
 H         5.3324326735        0.9906267568        2.8170525787
 H         4.1755097666        0.5418339922       -2.4371857000
 H         3.3224601328       -0.4660160090       -1.4113782053
 H         6.8637159872       -0.6066213257       -5.7312670417
 H         6.8471366370       -2.2228283843       -5.1637989985
 H         6.1500740144       -3.7827832834       -3.4774757518
 H         4.7834774754       -3.9109634294       -4.5378084444
 H         4.6243822460       -4.0072415208       -2.7758575749
 H         2.9518910608       -0.8542233392       -3.6357075406
 H         2.8157373326       -2.5385625454       -4.2899418900
 H         2.6234009902       -2.3340784441       -2.5469205121
 H         5.8854547312       -3.0303481412       -7.1423427561
 H         4.7144449128       -1.7568006097       -7.1879040407
 H         9.0471553497       -2.4295460512      -10.1670527053
 H         9.0766749637       -4.2284296499      -10.1848738777
 H         8.3502424061       -3.2024590269      -11.5376229481
 H         4.1775771123       -1.7188849858       -9.7051729663
 H         4.6669699432       -3.3261899485       -8.9220741209
 H         4.5292508978       -3.1207870779      -10.6167398817
 H         6.5053391756       -1.4137598379      -11.6380490697
 H         6.2657587356       -0.0542489696      -10.3076281434
 H         7.7453364511       -0.8874942617      -10.5265690381
 Na        0.8717324351        1.8502764920        1.2310009381
