155

 C         5.7501740120        0.0652314362       -2.5902931349
 C         4.6273333804        0.9007067094       -1.8777906388
 C         5.0428121578        2.4597647944       -1.5965035242
 C         5.2180538598        2.4648733332       -0.0506019236
 C         6.5965228412        2.6014761519        0.7123815888
 C         6.4354553969        2.8255856519       -2.1605056079
 C         4.0000504476        3.3579473437       -2.1773946425
 O         3.5249026131        0.4902113815       -1.5997346923
 O         4.2573124780        2.2733823743        0.6448521744
 C         6.4689820154        2.0897369352        2.0671272168
 C         6.6142102844        0.5189234910        2.0219541494
 C         6.6934164720       -0.3126688549        3.4000150750
 C         5.1413984934       -0.4042123972        3.9338686495
 C         4.2904119352       -1.3807035206        3.0367619733
 O         6.6690841220       -0.1267097187        0.9827614624
 O         4.8259131666        0.1122480589        5.0177501699
 C         7.3586912704       -1.7635331050        3.1027608936
 C         7.3923460175        0.4336363651        4.5776804170
 C         2.7762201661       -1.3935760900        3.4920968364
 C         2.1253811246       -0.2957515321        2.6189570676
 C         0.5854653106        0.1516652020        2.8667985091
 C        -0.1347941527       -0.4036757365        1.6424789519
 C        -1.1903108840       -1.4236443755        1.7039866170
 C        -0.0532428820       -0.3049931265        4.2156135986
 C         0.7585982688        1.6578087757        2.8782311813
 O         2.7437521496       -0.0102254000        1.6513986424
 O         0.2193258955        0.0432937756        0.5124820117
 C        -1.0147212877       -2.3979269524        0.4987613632
 C         0.1724019992       -3.2759381039        0.7378508834
 C         0.6205417787       -4.2650400636       -0.3224596309
 C        -0.5054447012       -5.1942224516       -0.8545867891
 C        -0.4070854198       -6.0224519699       -2.1348600788
 O         0.9179285809       -3.0384332713        1.6803493336
 O        -1.5269434056       -5.3572329161       -0.0737607533
 C         1.2123986648       -3.3726537855       -1.5231367483
 C         1.6936862726       -5.2288398994        0.2752065627
 C        -1.7868699931       -6.0719660296       -2.8680738848
 C        -2.0926470967       -4.8236446100       -3.7499695442
 C        -3.4934887183       -4.6639343689       -4.5148853148
 C        -4.3647084236       -3.8729874404       -3.4116481095
 C        -4.7067587274       -2.3361418182       -3.8136558506
 C        -3.2489531237       -3.7997778019       -5.8635015712
 C        -4.1532586953       -6.0598030549       -4.9692593969
 O        -1.3192072485       -3.9080118219       -3.8888682467
 O        -4.7015871496       -4.3927274957       -2.3567152779
 C        -5.8487755013       -1.9397319005       -2.7828754035
 C        -5.2455780405       -1.0758671746       -1.6862716643
 C        -5.6514940051       -1.4547391308       -0.1480718955
 C        -5.0785682229       -0.4371136445        0.8719792305
 C        -5.7736210062        0.9660607627        1.0771800487
 O        -4.3525431862       -0.2783182772       -1.8851856985
 O        -4.1823277168       -0.8191165597        1.5903984605
 C        -7.2428987672       -1.5325046094       -0.2298799878
 C        -5.1717363328       -2.9334788525        0.1572387951
 C        -5.4302828169        1.4858459299        2.4446970753
 C        -5.4304303807        3.0983370505        2.3985556089
 C        -4.1939352182        3.9340895005        3.0345975110
 C        -3.1848808522        3.8077585837        1.8259140306
 C        -3.1583055332        4.7660941904        0.6789370503
 C        -4.7797199036        5.3128541758        3.2158805983
 C        -3.5899020037        3.2715116697        4.3348203711
 O        -6.2892259367        3.6390861137        1.7900144499
 O        -2.5754609211        2.7895231576        1.8166544281
 C        -1.9484326858        4.6572505012       -0.2584597374
 C        -2.3221464794        4.2426738202       -1.6734594541
 C        -0.9538323463        4.0645350927       -2.5900894926
 C        -0.1710018826        2.8660309676       -2.1331905246
 C        -0.3069983765        1.5311369053       -2.7573151375
 O        -3.4026674047        3.8222711042       -2.0213460784
 O         0.6381173341        2.9821636515       -1.2006701253
 C        -1.4531415840        3.7934677098       -3.9901432877
 C         0.0176097532        5.4103112057       -2.4957821177
 H         5.7562521941        0.2796712309       -3.6073400603
 H         6.7479579063        0.4424514032       -2.2392125426
 H         5.9015927373       -1.0754383351       -2.5872639087
 H         7.4882493166        2.1805939382        0.2090662470
 H         6.7681955413        3.6931158996        0.7755090923
 H         7.2263062324        2.2350900001       -1.6930157296
 H         6.6467222730        3.8712019082       -1.8914191810
 H         6.4442240791        2.6537525646       -3.2186332031
 H         3.0188923014        3.0857603793       -1.8938361988
 H         4.2022902230        4.3599205197       -1.9229542559
 H         4.2209436391        3.4206377930       -3.2417198164
 H         7.3709170535        2.2746491364        2.6290258100
 H         5.5957300729        2.4493647680        2.7205496186
 H         4.3747587713       -1.2350019438        1.9889213857
 H         4.7434188319       -2.3633345978        3.1528585144
 H         7.3074367375       -2.2434413482        4.0753730307
 H         8.4142410136       -1.5517757353        2.7833863111
 H         7.0191254644       -2.3737214058        2.3232979342
 H         7.1438778931        1.4514789827        4.5828186620
 H         7.1381546073       -0.0409943049        5.5437243291
 H         8.4387606839        0.2734943703        4.5121921369
 H         2.5347077953       -1.3824687199        4.5571358397
 H         2.3310857964       -2.4058559792        3.1586961375
 H        -1.1345243005       -1.9495711707        2.7059012572
 H        -2.1424176490       -0.9318717341        1.7153271695
 H        -1.0743270362        0.1495962696        4.2985437644
 H         0.6517473728        0.0619325023        4.9137235742
 H        -0.1761523302       -1.3381672177        4.1945711535
 H         1.0733965445        2.0105422323        3.8369450197
 H         1.5045305442        1.9817094588        2.1992768356
 H        -0.2640609370        2.0633337582        2.7546662572
 H        -1.7975189192       -3.0214417160        0.3406938462
 H        -1.0760645731       -1.8046388061       -0.4727100130
 H         0.2821204662       -5.5100658537       -2.8172747276
 H        -0.1292154197       -7.0425830887       -2.0149896956
 H         0.4142242477       -2.8193424204       -2.1108580248
 H         1.8724874004       -4.0641789823       -2.1383679029
 H         1.8785070026       -2.5275626027       -1.2287541153
 H         1.9330890363       -6.1783181198       -0.2604482165
 H         2.6678552887       -4.7600576858        0.3789767473
 H         1.3726351478       -5.4176685746        1.3872529242
 H        -2.5218743095       -6.1217412556       -2.0370747538
 H        -2.0246741144       -7.0979056849       -3.2403135246
 H        -3.8870637055       -1.5761968918       -3.8946614402
 H        -5.0733771096       -2.4128592712       -4.8178008223
 H        -2.7463268529       -2.8530201082       -5.4830101902
 H        -4.2481825423       -3.6505982206       -6.2972025705
 H        -2.5650174456       -4.4437351046       -6.5503813897
 H        -5.0268745055       -6.2401556389       -4.3737701294
 H        -4.5800626461       -5.8596927059       -5.9541933726
 H        -3.4723525455       -6.9234634157       -5.0294769184
 H        -6.5137372123       -1.2164518926       -3.2706431661
 H        -6.2963100890       -2.9276291307       -2.3784240866
 H        -5.4581981998        1.6682665208        0.3160545448
 H        -6.8526010356        0.8699551752        1.0924404597
 H        -7.7404214892       -0.5343757392       -0.6016894947
 H        -7.5650172553       -1.7757092781        0.7614958937
 H        -7.4790916041       -2.3058135481       -0.8433133031
 H        -4.1835475320       -3.0783473122       -0.3178112707
 H        -5.0194876113       -3.0103811107        1.2333969802
 H        -5.9145214871       -3.6552115998       -0.3071082002
 H        -4.4604251636        1.2661772681        2.8247414482
 H        -6.1329910249        1.1260857191        3.2757323748
 H        -4.0142317156        4.4568063490        0.0886378921
 H        -3.2709126156        5.7904507324        0.9409100846
 H        -5.6038282448        5.3325709826        3.9084349524
 H        -5.0106650582        5.7524337787        2.2516027301
 H        -4.1334667931        5.8917654451        3.8522906525
 H        -2.9414236333        3.9608942336        4.8808483344
 H        -4.3240862758        2.8205557010        4.8914668586
 H        -2.8590909826        2.5581970428        3.9756736636
 H        -1.3061370997        5.5159923056       -0.0569539137
 H        -1.4570238285        3.6367983897        0.0171069396
 H        -0.9802255763        1.4077834628       -3.6051734677
 H         0.6489931574        1.0138334293       -2.8063906129
 H        -0.8942924590        0.9390530145       -2.0525886005
 H        -1.7507417899        4.6586865877       -4.4951539654
 H        -2.3138685060        3.1542155135       -4.0157050638
 H        -0.6846948495        3.2428985720       -4.6183390962
 H        -0.5406622379        6.2609916916       -2.9406128871
 H         0.3544349198        5.6877120110       -1.4750638709
 H         0.8922897776        5.1079738739       -2.9737838545
 Na        1.9936007226        1.4641542722       -0.1822980255
