155

 C         5.3008883800        0.2126986594       -2.7594450370
 C         4.3393877738        1.1507547235       -1.9886479797
 C         4.7683044842        2.6739308458       -1.5120605402
 C         4.5921623998        2.4405758176        0.0976837631
 C         5.8627575320        2.3367527228        0.9150191057
 C         6.1531262568        3.1090241004       -1.9917560626
 C         3.6096639911        3.5171599283       -2.1054629091
 O         3.3116764543        0.6706856219       -1.6517698505
 O         3.4940634996        2.4050654095        0.6236649283
 C         5.6828247866        1.7073035326        2.2227675560
 C         6.5703731761        0.4618295690        2.3435130268
 C         6.5714250251       -0.3409695942        3.6770672927
 C         5.0971176396       -0.6873703185        4.0143061695
 C         4.4265147090       -1.9623797754        3.3784219836
 O         6.9212888943       -0.1004286386        1.2881779382
 O         4.4605625869        0.2079836148        4.5360812719
 C         7.2808170549       -1.8054795898        3.4430825565
 C         7.2966161222        0.4643325422        4.6983061668
 C         2.8851345375       -1.9224267775        3.3693633574
 C         2.2949091667       -0.7786549098        2.5348598948
 C         0.9713875988        0.1320854409        2.8811431048
 C        -0.1241668963       -0.1982540619        1.7351795950
 C        -1.0752792226       -1.3685250295        1.8918562926
 C         0.3736338518       -0.2347623792        4.3241013118
 C         1.4147244534        1.6437185244        2.9272481724
 O         2.9263139712       -0.3786814922        1.5193200102
 O        -0.0945978272        0.4632802185        0.7621764690
 C        -0.9113394796       -2.3764899826        0.7378423789
 C         0.2975222334       -3.3036160045        0.9029508043
 C         0.8686804886       -3.9114987687       -0.4319470791
 C        -0.3318708873       -4.8040130416       -1.1398867296
 C         0.0345526189       -5.6955604732       -2.3554459732
 O         0.8718225430       -3.4770581121        1.9652683082
 O        -1.4329778337       -4.7768773934       -0.6336842119
 C         1.3284107592       -2.6436932020       -1.2926480399
 C         2.1998186757       -4.7231757394       -0.2304372429
 C        -1.1304809706       -6.0217126231       -3.2463481843
 C        -1.6572977693       -4.7322841679       -3.8365741103
 C        -3.0778837892       -4.7137155033       -4.5265153483
 C        -4.1242197422       -4.0529277554       -3.5313215868
 C        -4.4169150516       -2.5465496291       -3.6832621749
 C        -2.9521092147       -4.0389991499       -5.8185050386
 C        -3.5859636745       -6.2268017422       -4.7826202017
 O        -1.0097114508       -3.7041574156       -3.7421171067
 O        -4.6246451642       -4.8170321419       -2.7412315108
 C        -5.7034416758       -2.0827359600       -2.9698086911
 C        -5.3048967683       -1.2743625325       -1.6616685710
 C        -5.7809266966       -1.7057426538       -0.2840170422
 C        -5.1581984025       -0.6792636594        0.8251747381
 C        -5.4434543751        0.8434619078        0.6668081136
 O        -4.5113152259       -0.4043736661       -1.8262557346
 O        -4.3832915441       -1.1770468634        1.6395532033
 C        -7.3474200181       -1.6182895231       -0.2685215578
 C        -5.4157945051       -3.2085134010        0.0620404545
 C        -5.2355534722        1.4662366007        2.1595021826
 C        -5.6155907213        3.0060184550        2.3410521290
 C        -4.4299588484        4.1117047619        2.7609723609
 C        -3.2490161243        3.9099712044        1.8015244703
 C        -3.0563902190        4.9568814903        0.6737070104
 C        -5.0662316484        5.4709962475        2.8327689923
 C        -3.7833175215        3.6463609827        4.1772672031
 O        -6.7358791014        3.4014825618        2.1773426482
 O        -2.5068047592        2.9308464827        1.8282028332
 C        -1.7793569915        4.8746496147       -0.2212452431
 C        -2.1114564398        4.5147367260       -1.6443795301
 C        -0.8500489004        3.9578669653       -2.6228750585
 C        -0.1821715449        2.7467371463       -1.8935961914
 C        -0.5430144376        1.3330726460       -2.1241194224
 O        -3.2251869943        4.5915671628       -2.1072828870
 O         0.6551488975        2.9388304500       -1.0250305532
 C        -1.4440117138        3.6920643328       -4.0336455042
 C         0.0782532399        5.3023988220       -2.6709357818
 H         5.6821699288        0.6829431704       -3.6552713432
 H         6.2160759350        0.0018437991       -2.2223432515
 H         4.9788339208       -0.8263329154       -3.0045070145
 H         6.5432406751        1.7361809649        0.3098441972
 H         6.1346411882        3.3752323237        0.9772641845
 H         6.8916242242        2.3741568626       -1.7706362094
 H         6.3466338029        4.0653325325       -1.5411776162
 H         6.1758371811        3.3688482370       -3.0233299310
 H         2.6970884753        3.1460570166       -1.6662790153
 H         3.8124081876        4.5584409751       -1.7111852306
 H         3.5043534037        3.4875618594       -3.2641402174
 H         5.7306918997        2.4795493558        3.0982153781
 H         4.6627395580        1.2812659760        2.3658189312
 H         4.6290150708       -1.8086575408        2.3113241780
 H         4.8970759551       -2.8765735138        3.6527959836
 H         7.1834027004       -2.5228626410        4.2452745555
 H         8.3612274378       -1.6224508385        3.3000678182
 H         6.7635960120       -2.2962963759        2.6355123182
 H         6.6295616868        1.2356282399        5.1695966316
 H         7.7337490515       -0.1937312779        5.4244964700
 H         8.0648715308        1.0525445726        4.1519560111
 H         2.4488683725       -1.6687552538        4.3756310690
 H         2.4805763677       -2.9105016733        3.1993804720
 H        -0.9513279709       -1.8166799004        2.8246184344
 H        -2.1752107491       -1.0947808436        1.8840433322
 H        -0.5612371457        0.2685532578        4.3828278270
 H         1.0609238519        0.2414238798        4.9601536488
 H         0.4236554031       -1.3467242150        4.4457740859
 H         2.2623362451        1.6508355956        3.5329489882
 H         1.7408412861        2.1205632101        2.0118746905
 H         0.6003668487        2.2366268286        3.3770752942
 H        -1.8555054598       -3.1144298541        0.7811270766
 H        -1.0177503448       -1.8720124511       -0.2475849211
 H         0.7854714888       -5.2629405408       -2.9901591221
 H         0.4444659064       -6.5862509011       -1.8899323761
 H         0.5504475825       -1.8368665138       -1.4094967770
 H         1.8309385482       -2.8253251105       -2.2726199530
 H         2.1963678060       -2.1578752953       -0.7608401781
 H         2.4690604996       -5.3838847325       -1.0518401879
 H         3.0613453318       -4.0176248778       -0.0552031965
 H         2.2043283648       -5.3971377158        0.6732127645
 H        -1.8739729116       -6.5391057562       -2.6658319709
 H        -0.9504692796       -6.7861086975       -4.0080154802
 H        -3.6431624365       -1.8751219833       -3.3472876445
 H        -4.4428710395       -2.3625521928       -4.7727435194
 H        -2.5012343004       -3.0922104235       -5.6654250289
 H        -3.9960719819       -4.1095858541       -6.2462838951
 H        -2.3507880119       -4.7451072179       -6.4349317328
 H        -4.0292327916       -6.5594974760       -3.8036945118
 H        -4.3691978131       -6.1765287731       -5.5540923944
 H        -2.8200834233       -6.8541062892       -5.1589934868
 H        -6.2099680137       -1.4812563900       -3.7066727732
 H        -6.3207961421       -2.9353090671       -2.7029886570
 H        -4.6027223529        1.0717283754        0.0133673519
 H        -6.2284077857        1.0334989874        0.0157426759
 H        -7.6012568554       -0.6544760817        0.2170144053
 H        -7.6444015062       -2.5419356491        0.1953046290
 H        -7.7747259707       -1.6271139040       -1.2415575844
 H        -4.4320616842       -3.0929324776        0.5184522750
 H        -6.2010357887       -3.6510835586        0.7631019277
 H        -5.3118094008       -3.7972543595       -0.8516441453
 H        -4.2145901939        1.1442267924        2.5484415378
 H        -5.9164484743        0.8926873133        2.7173914225
 H        -3.9406788495        4.7273644221        0.0112473014
 H        -3.2840039748        5.9616766424        1.1543785771
 H        -6.2016638766        5.3286126122        3.0728058030
 H        -5.0191343162        5.8701204539        1.7987570407
 H        -4.4515934686        6.2061230642        3.4534627470
 H        -3.1266033526        4.4233414846        4.5189786296
 H        -4.5884159703        3.5959515411        4.9272344195
 H        -3.3530701851        2.6851976456        4.0430633356
 H        -1.1863637415        5.8482021060       -0.1736516869
 H        -1.1710472583        4.1301335790        0.2435386336
 H        -0.7779718331        1.0647880209       -3.1831590458
 H         0.2444304635        0.6774496310       -1.8815450796
 H        -1.4528252808        0.9976067225       -1.5570274250
 H        -1.2445426845        4.5209988218       -4.7541254098
 H        -2.4559556965        3.3798829273       -4.0189374629
 H        -0.8932585260        2.8884389384       -4.4780477391
 H        -0.4318259245        6.0962127656       -3.2048261818
 H         0.4465127447        5.6416863945       -1.6968917228
 H         0.8736067820        5.1136406501       -3.3698837075
 Na        1.7722440584        1.1758319520       -0.1945810758
