155

 C         5.4582307550        0.3855967229       -2.7954503790
 C         4.3464771679        1.1134352551       -2.1279143446
 C         4.7192990431        2.6084663672       -1.5257438696
 C         4.5693177912        2.4727162920        0.0370894609
 C         5.9097254034        2.4725210589        0.9182623824
 C         6.1369611292        3.0257883045       -1.9879072069
 C         3.7203040068        3.7048641532       -1.9088121576
 O         3.1793546598        0.6617971020       -2.0569730148
 O         3.5190763823        2.5592946760        0.6336531654
 C         5.6709124895        1.6269499597        2.2577347121
 C         6.5002285092        0.3735615892        2.2576697517
 C         6.5053696564       -0.4393976370        3.6208142904
 C         4.9836309803       -0.6619937632        4.0396897883
 C         4.3464404842       -1.9611972685        3.4795828485
 O         7.1076937620       -0.0820683711        1.3525622215
 O         4.3189058109        0.1837436325        4.5937858192
 C         7.3931185018       -1.6373256224        3.5032218661
 C         7.2097225594        0.4805279431        4.6486114860
 C         2.8252587106       -1.8876929037        3.5299458270
 C         2.2561943585       -0.7539454689        2.5370429821
 C         0.9691911259        0.0440725148        3.1389697380
 C        -0.0407445234       -0.3646868826        2.0224109427
 C        -1.1274686862       -1.4899843602        2.1620635518
 C         0.5662377279       -0.3890970243        4.6284154024
 C         1.3289553941        1.5496918151        3.0300689559
 O         2.6905515777       -0.4970894672        1.4600407003
 O         0.0190842153        0.2154585182        0.9023747106
 C        -1.1504133355       -2.4312768889        0.9722546775
 C         0.2145991252       -3.2771130575        0.8588739248
 C         0.9289372500       -3.7217755303       -0.4937096093
 C        -0.1016980113       -4.6059133810       -1.3175757408
 C         0.3570494541       -5.5973592121       -2.3924164001
 O         0.7513845534       -3.6164048774        1.8851120526
 O        -1.2443741956       -4.5367336963       -0.9749937853
 C         1.2139683086       -2.5956553022       -1.5165769395
 C         2.1701361700       -4.5833832990       -0.1080739082
 C        -0.9688714656       -5.9578144443       -3.1527271758
 C        -1.6381787146       -4.7155660252       -3.8569300153
 C        -3.0324434991       -4.8026450459       -4.5650464296
 C        -4.0556672266       -4.1734487542       -3.5831111271
 C        -4.3738839529       -2.6721157946       -3.7942129398
 C        -2.8170050772       -3.9939738349       -5.9312595341
 C        -3.3601006115       -6.2739533638       -4.8864068943
 O        -1.1837392161       -3.5964703623       -3.7141670353
 O        -4.6623075714       -4.8373451567       -2.7708826039
 C        -5.5170883236       -2.2185615944       -2.8770267796
 C        -5.1918092179       -1.3370295351       -1.6856799233
 C        -5.8385970048       -1.6062132352       -0.2557040347
 C        -5.3064601532       -0.7706210520        0.8709973515
 C        -5.3896109688        0.7774003611        0.8642592273
 O        -4.3777199269       -0.4202631178       -1.7467831775
 O        -4.5684230688       -1.2139675819        1.7333382837
 C        -7.4052670347       -1.5301572865       -0.4156328212
 C        -5.3715208208       -3.0668915879        0.0701972746
 C        -5.0131590564        1.4431821620        2.1160816568
 C        -5.5304652606        2.8185849103        2.2950306069
 C        -4.4915269376        3.9664498432        2.6717752743
 C        -3.2316377758        4.0228306441        1.7196618043
 C        -2.9794963885        5.1390502555        0.6582683635
 C        -5.2534197182        5.2952244721        2.6611521376
 C        -4.1443996098        3.7187579747        4.0988842402
 O        -6.6999003111        3.1685181934        2.0445796557
 O        -2.4344040421        3.0939859828        1.8372510148
 C        -1.7792875059        4.7026278512       -0.1880484793
 C        -2.1178583486        4.5013357603       -1.6570984264
 C        -0.9331998010        4.0104407412       -2.6160311786
 C        -0.3306119451        2.8050897799       -1.8612322816
 C        -0.9501710805        1.4939796414       -2.1987182950
 O        -3.2196784441        4.6700932649       -2.1176644033
 O         0.6510228620        2.9751164131       -1.1069036500
 C        -1.4775124755        3.6896823215       -4.0422247838
 C         0.2758556465        5.0511404645       -2.6981222682
 H         5.7251570670        0.8003810735       -3.8067124037
 H         6.4154422519        0.3035642280       -2.3103705488
 H         5.2418586017       -0.6070505554       -2.8646177599
 H         6.6961113982        2.0834650775        0.2890763926
 H         5.9312923141        3.5621171623        1.1003138658
 H         6.9186599405        2.2418238367       -1.8922155871
 H         6.4914530602        3.9675607926       -1.5646644220
 H         6.0560030842        3.2282899577       -3.0903265466
 H         2.6678687295        3.3597101285       -1.8410975451
 H         3.9333084992        4.6567268290       -1.3851778302
 H         3.8652729197        3.7242204839       -2.9379394936
 H         5.6634477083        2.2394358401        3.0923906787
 H         4.6797537870        1.2462919684        2.1814583572
 H         4.7072521600       -2.2473339238        2.4645090047
 H         4.7240383132       -2.7147671221        4.2400094714
 H         7.3961212003       -2.1107721232        4.5013576586
 H         8.3606034230       -1.2548617456        3.4254493107
 H         7.1033432123       -2.4423633369        2.7943201956
 H         6.7450505479        1.4762370837        4.6840207116
 H         7.2038796594       -0.0205470368        5.6516731479
 H         8.2363739295        0.7054534150        4.2771787683
 H         2.5198140634       -1.8500989587        4.5495433798
 H         2.3418015068       -2.8298802182        3.2030309649
 H        -0.9199511409       -2.0762687878        3.1305884349
 H        -2.0769409225       -1.0556876315        2.3482634664
 H        -0.1961876417        0.3642445599        4.7399945229
 H         1.4703935105       -0.2327679711        5.2871726303
 H         0.2056161713       -1.3979791756        4.6436075098
 H         2.2213519595        1.8680957364        3.7011263937
 H         1.5368369167        1.7772085790        1.9794644604
 H         0.4595908335        2.1558316612        3.2079995628
 H        -1.9205057567       -3.1162566343        0.9197562430
 H        -1.1744256537       -1.8001063795        0.0888539421
 H         1.1385436589       -5.2127216245       -3.0800944464
 H         0.7690443116       -6.4900138643       -1.8663944599
 H         0.3038471590       -2.3116246698       -2.0010479385
 H         1.8477980724       -2.8897672663       -2.3414891570
 H         1.6588455810       -1.7071783752       -1.1019417288
 H         2.6009812633       -5.2114861417       -0.8751463391
 H         2.9098910546       -3.9590788029        0.3410132218
 H         1.8995295204       -5.2345067844        0.6316703548
 H        -1.6377343133       -6.4095891017       -2.3505200136
 H        -0.8416435400       -6.7908133472       -3.8557195043
 H        -3.4854621413       -2.0059566080       -3.6478367204
 H        -4.6977672170       -2.5622002080       -4.8279797030
 H        -2.2949198339       -3.1168290992       -5.5800542091
 H        -3.8162597373       -3.7458649251       -6.2215707658
 H        -2.1843312730       -4.5255221194       -6.5772130424
 H        -3.7408686738       -6.8200067053       -4.0510489639
 H        -4.0013229650       -6.2099247603       -5.7744743733
 H        -2.4534055762       -6.7522948825       -5.3737348564
 H        -6.2573969942       -1.6430025035       -3.5117518660
 H        -6.1174162318       -3.0641811148       -2.5556497540
 H        -4.8922801161        1.2245191408       -0.0187017277
 H        -6.4805589225        0.9855664830        0.5487772641
 H        -7.6815976297       -0.5744035055       -0.1104421822
 H        -7.8265366381       -2.3722153727        0.1670135075
 H        -7.6339925614       -1.6119660227       -1.5481992969
 H        -4.3067284603       -3.0695959817        0.3084079082
 H        -5.9094280417       -3.2400891108        0.9522994174
 H        -5.7032436525       -3.7980276626       -0.6626719796
 H        -3.9750990688        1.4604105892        2.2499546840
 H        -5.4306682190        0.7695708989        2.9220283099
 H        -3.8584978871        5.3230177648        0.0211011061
 H        -2.8344825304        6.0163651117        1.2554182419
 H        -6.0457852626        5.1569919764        3.3284199995
 H        -5.7628461087        5.5600876240        1.7259222632
 H        -4.5331931365        6.0796285817        2.8531796268
 H        -3.7464169592        4.6595626479        4.4590063528
 H        -5.0304527185        3.5959608973        4.7050284449
 H        -3.5273611406        2.8130062423        4.1771664796
 H        -1.1033922927        5.5020880126       -0.0958979755
 H        -1.2195408809        3.8722417509        0.3132460912
 H        -1.1299925312        1.2464127047       -3.2096833642
 H        -0.2841170541        0.6217255967       -1.8894153490
 H        -1.8442477576        1.3777039232       -1.6323389984
 H        -1.5712664257        4.5709299220       -4.6281712392
 H        -2.4422205064        3.1536380741       -3.8928023610
 H        -0.8349143068        3.0495015746       -4.6560610269
 H         0.1333664201        5.9010607838       -3.3594278444
 H         0.5484475335        5.4193014990       -1.7286801028
 H         1.1208028972        4.5416528568       -3.2269894942
 Na        1.7954489065        1.2833351507       -0.0751526320
