155

 C        -9.7512441705       -3.9451164405        2.6220728405
 C        -9.0422695672       -4.8363778872        1.6396552617
 C        -8.4144685674       -6.2939024706        2.0891545201
 C        -6.8056184002       -6.1204291317        1.9343780922
 C        -6.1060379536       -5.5410752862        0.4667794304
 C        -8.6635722272       -6.7179869660        3.5356446654
 C        -9.1169803970       -7.2998362777        1.1858644622
 O        -8.9851238360       -4.5772548373        0.4475708439
 O        -6.0208748254       -6.4565146156        2.7457921198
 C        -5.6503377709       -4.0917426335        0.5906637967
 C        -4.5127280486       -3.9210068485        1.5500716084
 C        -4.6980180548       -2.7695610287        2.6964611587
 C        -4.6161342420       -1.5577236226        1.8398302537
 C        -3.1247120229       -1.1086210925        1.3538326517
 O        -3.4776552834       -4.5475230117        1.5069369506
 O        -5.6196488277       -0.9703640608        1.4671647003
 C        -6.1281588897       -2.7106839283        3.3492188861
 C        -3.7105053369       -2.9727747819        3.8255289139
 C        -3.0958290677        0.3223698132        0.7071210146
 C        -1.7476856197        0.7014194847        0.0720031627
 C        -1.8924023231        1.8041083988       -1.0546916974
 C        -1.5028743091        3.3088604775       -0.6530567624
 C        -2.1057330136        4.5161221573       -1.3332923555
 C        -0.7697802850        1.3403118658       -2.1483424950
 C        -3.1673942756        1.7452867648       -1.8971539318
 O        -0.7383202466        0.1506300984        0.5042846714
 O        -0.5867296061        3.4506789703        0.1228058605
 C        -2.2265402556        5.7192542003       -0.3087754587
 C        -2.9975537886        5.2851966234        1.0218630520
 C        -3.1715478154        6.3910272234        2.1408179253
 C        -2.4767296030        5.6454558463        3.3833189100
 C        -3.0199402029        4.3993553445        4.0813740962
 O        -3.4251208754        4.1361476370        1.1169596016
 O        -1.3784936094        5.9983964666        3.6500588016
 C        -2.5344373944        7.7452865854        1.7399671773
 C        -4.7005708164        6.7140315027        2.5589104475
 C        -2.0473465371        3.5801749414        4.9425448575
 C        -1.0515541475        2.6941060209        4.2224763734
 C        -0.0230943349        1.8733585776        5.0985090352
 C         1.3429099920        1.8752459923        4.3725760974
 C         2.1245525831        3.2389262156        4.3951194305
 C         0.1895653004        2.4008179546        6.5268073715
 C        -0.4184830511        0.3466225019        5.1050952574
 O        -1.0316889777        2.5332273216        3.0345071467
 O         1.8618172006        0.8844125411        3.7695846938
 C         3.5380971918        3.1648080976        3.7970368636
 C         3.3650110788        2.9595260718        2.2549514815
 C         4.6311462587        2.5805597606        1.4411233157
 C         4.1299116197        1.4119977809        0.4719845261
 C         5.0866006750        1.0499823316       -0.7012492883
 O         2.2891128603        3.1295296032        1.7474199014
 O         3.0796589161        0.7844488057        0.6469640126
 C         5.0527424783        3.8404086231        0.6545517253
 C         5.6916860704        1.9225795340        2.4237911142
 C         4.2591568239        0.2051215223       -1.6520513857
 C         5.0323364034       -1.1159437150       -2.1287604072
 C         4.3437929423       -1.9896338206       -3.2702272543
 C         4.5102345386       -1.1360906704       -4.5532059448
 C         5.5308809592       -1.4106810204       -5.7265137208
 C         4.9542798748       -3.4320766490       -3.3970016623
 C         2.7793178837       -2.1166808261       -3.0622190229
 O         6.1213579474       -1.3802123478       -1.6768343136
 O         3.9503534044       -0.0566205215       -4.5166365352
 C         5.0074713083       -1.9221400670       -7.1319846517
 C         6.0821462053       -1.6391551678       -8.1974495569
 C         5.8905156216       -2.2475805327       -9.7058528160
 C         6.7623738783       -3.4742877534       -9.6616140618
 C         7.9643537627       -3.6962888104      -10.3950458639
 O         7.1489592849       -1.1035052025       -8.0376885070
 O         6.3261110328       -4.4916377084       -9.0164615383
 C         4.3775683629       -2.6330947426       -9.8887305833
 C         6.4230426882       -1.1684607497      -10.7242519520
 H       -10.6958958990       -4.4119840654        2.9328102226
 H        -9.1552553627       -3.6132038453        3.4862284859
 H       -10.0365785719       -2.9951706383        2.1735546713
 H        -5.3200857363       -6.1312396458        0.1702205648
 H        -6.7828520960       -5.5884405087       -0.4245350080
 H        -7.9712448358       -6.2130123283        4.2395157029
 H        -8.5594773859       -7.7900447923        3.6652309912
 H        -9.6396684018       -6.3498057034        3.8375571401
 H       -10.1943407984       -7.1037049150        1.2218002961
 H        -8.9152118750       -7.1974725168        0.1384203593
 H        -9.0109358962       -8.3185381884        1.3258049512
 H        -5.3936966394       -3.7065910306       -0.4070565267
 H        -6.5114479761       -3.4926308986        0.7826165043
 H        -2.6051376841       -1.0823095421        2.2650892809
 H        -2.7482759317       -1.9495525747        0.6913555703
 H        -6.0785339283       -2.3726146993        4.3791578478
 H        -6.5208884779       -3.7386114745        3.2598613078
 H        -6.7321619381       -2.1055469607        2.7886271634
 H        -3.6502274462       -4.0412820297        4.1721789989
 H        -2.6518934132       -2.9995669897        3.5881452981
 H        -3.8965779454       -2.2728231657        4.6468436443
 H        -3.3290727190        1.1309296476        1.4941126564
 H        -3.9423551553        0.2811851297       -0.0532876757
 H        -1.3995466221        4.7908471082       -2.2023107085
 H        -3.0780475242        4.1741917709       -1.7642566516
 H         0.1676494694        1.4193542352       -1.6699971731
 H        -1.0465795189        1.8856947143       -3.0997002908
 H        -0.8324447722        0.2618804533       -2.2807377566
 H        -3.4449740155        0.7038965338       -2.1048701843
 H        -4.0347752972        2.1629741952       -1.4222278958
 H        -3.0694241299        2.3429593703       -2.7760343760
 H        -1.2467974722        5.9450780242        0.0289403535
 H        -2.6099328915        6.6413102581       -0.7875643100
 H        -3.8838563027        4.7558841709        4.6741824296
 H        -3.4536085540        3.7895606278        3.2480500357
 H        -1.4441058744        7.6466345592        1.9515263563
 H        -3.0242993187        8.5425515725        2.2801221876
 H        -2.7517331523        7.9118663662        0.6866954458
 H        -5.1730052842        6.9858587584        1.6227290566
 H        -5.2393050487        5.8494179966        2.9118058711
 H        -4.6851559935        7.5126104162        3.2455886047
 H        -2.7584889204        2.9853468031        5.6156031288
 H        -1.5382560667        4.2625599417        5.6410021780
 H         1.5132566367        4.0065868834        3.9980856428
 H         2.2827005985        3.5495395884        5.4710558924
 H         0.9359686606        3.2368511792        6.5588282639
 H         0.7049353835        1.6072674648        7.0261250032
 H        -0.7641165705        2.6351987824        7.1830160185
 H         0.4133545315       -0.2184248190        5.4492883471
 H        -1.3510131509        0.2485120222        5.7313944510
 H        -0.8336512139        0.0826701563        4.1376999499
 H         4.0669602707        4.0852583135        3.9875468134
 H         4.1142074462        2.3870362888        4.3055362728
 H         5.3930600750        1.9173634085       -1.2193144871
 H         5.9695115284        0.5878430896       -0.4228744050
 H         5.5506318067        4.6281513439        1.2569825064
 H         4.1786668444        4.2502100578        0.2395946315
 H         5.7779142907        3.6946581202       -0.1196972863
 H         6.4989673614        1.3420630772        1.8642766235
 H         6.0404355399        2.5885461767        3.1351957803
 H         5.0708739902        1.1956222733        3.0073178942
 H         3.9406285012        0.6548872597       -2.5912360591
 H         3.3261763403       -0.0993685479       -1.1287100623
 H         6.0882383252       -0.4529180727       -5.8690016946
 H         6.3197226023       -2.1060620214       -5.4832372808
 H         6.0883144020       -3.3360212178       -3.3355618473
 H         4.6698182144       -4.0154518661       -4.2285670600
 H         4.8268961423       -4.1231314806       -2.5718377136
 H         2.4014290692       -1.1393326920       -3.3911893844
 H         2.3692301064       -2.6640593406       -3.8930565328
 H         2.5115522758       -2.5611539488       -2.0747906789
 H         4.7843129656       -3.0085050186       -7.2240697455
 H         4.0171772361       -1.4554416988       -7.3541514920
 H         8.7248510389       -3.1217830044       -9.8802540554
 H         8.1486209539       -4.7801188210      -10.4818934777
 H         8.1245275184       -3.2623704164      -11.3761151702
 H         3.7883496232       -1.8053444023       -9.6275679993
 H         4.1122136159       -3.5790170004       -9.3151833120
 H         4.0882639256       -2.7900509322      -10.8987427170
 H         6.2502642856       -1.4970730080      -11.7920559252
 H         5.7287321134       -0.3079412799      -10.6693602968
 H         7.3887318965       -0.9090772101      -10.3107205199
 Na        0.6674565814        1.5357391422        1.5382185780
