155

 C         4.5815419644        0.3179850237       -2.4861969099
 C         3.7006501871        1.2576233972       -1.6134618345
 C         4.4717564706        2.5739552031       -1.1692699006
 C         4.7610967232        2.3974504051        0.4052841242
 C         6.1106910593        2.7700503118        1.0195936434
 C         5.7946985679        2.9165993549       -1.8826964256
 C         3.5490037054        3.8999488516       -1.1528907626
 O         2.5570810811        1.0723075692       -1.3024436587
 O         3.8705426961        2.1800090167        1.1963466690
 C         6.3381097724        2.2902650486        2.3734858609
 C         6.5562469308        0.7140498636        2.4845635939
 C         6.7194894145        0.1213573440        4.0469709492
 C         5.1847524063       -0.2398540508        4.2178554728
 C         4.7245261572       -1.7126878572        3.7966763541
 O         6.5143357974       -0.0413838033        1.5518302329
 O         4.3572478382        0.5279606761        4.6909285717
 C         7.7372988864       -1.0421054648        3.9641002010
 C         6.9683517503        1.1060030341        5.1679693344
 C         3.1975081000       -1.8701352420        4.1415830390
 C         2.4454432426       -0.9087367001        3.2936399975
 C         1.0213593217       -0.4867466057        3.7447934548
 C        -0.0505491936       -0.6918513275        2.7274937470
 C        -0.7404510135       -2.0104697472        2.5624398887
 C         0.5763965035       -1.0781847910        5.1507044042
 C         0.9392024763        0.9792349419        4.0204544162
 O         2.8201161535       -0.4971639309        2.1879248895
 O         0.0530368942        0.0558343222        1.7323350517
 C        -0.7763559268       -2.3754581151        1.0661817980
 C         0.5152618701       -2.9177922695        0.4744242294
 C         0.8082024086       -3.0885787617       -1.0536608718
 C        -0.1547913579       -4.1490794641       -1.5862121338
 C         0.2050497784       -5.2254558185       -2.5574160866
 O         1.4057936631       -3.1168164677        1.2445138210
 O        -1.3197406146       -4.2198776939       -1.1626990536
 C         0.5604911604       -1.7776346001       -1.8743924937
 C         2.3181444720       -3.5148611565       -1.2558364467
 C        -0.8084618030       -5.5783620079       -3.6152205657
 C        -0.9188923339       -4.4808127582       -4.7651265561
 C        -2.2460830287       -4.4648217524       -5.6120709662
 C        -3.5523191557       -4.5019781780       -4.4959261892
 C        -3.4482457103       -3.5675927219       -3.3084312043
 C        -2.2568370878       -3.1776329803       -6.4344679069
 C        -2.5096594803       -5.7331950606       -6.4949938456
 O        -0.1524273407       -3.5373260578       -4.8421973524
 O        -4.5130851020       -5.1607197907       -4.7952280235
 C        -4.8327804580       -3.0670517035       -2.8194140176
 C        -4.7915171861       -1.8987051044       -1.7763494894
 C        -5.5027105732       -2.2936979638       -0.3605322035
 C        -5.2881509302       -1.1923198933        0.7158976939
 C        -5.5920919285        0.3148506113        0.4071345791
 O        -4.0688094835       -0.8827740202       -1.8170853014
 O        -4.9015467399       -1.4737362562        1.8230181148
 C        -7.1000176671       -2.2924895271       -0.6248676730
 C        -5.0693555285       -3.5915434896        0.3200817226
 C        -5.7198898484        1.2364221288        1.6754571235
 C        -5.7671376835        2.6877188657        1.1204077330
 C        -5.1116871395        3.8620451713        1.8835596743
 C        -3.7624185967        4.3480016392        1.2106218361
 C        -3.6789042747        5.7050848089        0.4196094334
 C        -6.1630645576        4.9494894570        1.9458731353
 C        -4.6181593350        3.3753709289        3.3157138353
 O        -6.3566284535        2.9066316202        0.0325953925
 O        -2.7267864720        3.7097857169        1.3183842380
 C        -2.4384615197        5.5589376527       -0.5518777531
 C        -2.4829922038        4.3071673011       -1.4604816624
 C        -1.1640063663        3.6486855006       -1.9481587982
 C        -0.6721583070        2.6284095115       -0.8632454053
 C        -1.5104293086        1.4367406375       -0.6403911978
 O        -3.5438951490        3.7384631098       -1.5655560056
 O         0.3348317426        2.8392745412       -0.2352792661
 C        -1.4055128607        2.9558984764       -3.3135634418
 C        -0.1304335089        4.8375254941       -2.1434735013
 H         4.8168418427        0.8890086664       -3.3650331151
 H         5.5681762397       -0.0018360556       -2.0317428407
 H         4.1011121645       -0.5246434455       -2.8484251696
 H         7.0065585560        2.7435199643        0.4278186417
 H         6.0369547219        3.8873777605        1.1278743627
 H         6.6304701194        2.2776498433       -1.6999571061
 H         6.0881936919        3.9023895646       -1.5418849989
 H         5.6053190626        2.9634271176       -2.9107364110
 H         2.5249487123        3.7915332433       -0.7473992234
 H         4.1366698087        4.5460448168       -0.6033603825
 H         3.4512233744        4.0464198114       -2.1999380771
 H         7.3446645516        2.5893167981        2.7435420788
 H         5.5335970718        2.5558579028        3.1206858041
 H         4.9659873130       -1.8449985274        2.6977801462
 H         5.3032321464       -2.5594630765        4.2192932437
 H         7.9343827871       -1.5299309111        4.9090658340
 H         8.6727345581       -0.5695669068        3.4845642368
 H         7.4854073738       -1.7470147009        3.2091815323
 H         6.3986382521        2.0397994063        5.2020836604
 H         6.9210477640        0.5019561489        6.1486852554
 H         8.0273355348        1.4745997054        5.1367028520
 H         3.0594154550       -1.5093211148        5.1836244268
 H         2.7276105558       -2.8501932590        4.0668659813
 H        -0.0748204169       -2.6478976003        3.0411535097
 H        -1.8080749819       -2.0748907116        2.9916221574
 H        -0.6003311945       -1.0056028646        5.2403363794
 H         0.8940995760       -0.3957321404        5.9347687569
 H         0.6515913656       -2.1080874227        5.4318620382
 H         1.6495751250        1.1491442119        4.8372262310
 H         1.0573112576        1.7868508271        3.3197742415
 H         0.0076614007        1.2787933211        4.5821021638
 H        -1.7133437428       -2.9208969072        0.8413043776
 H        -1.0391107340       -1.4514403691        0.3810164465
 H         1.1500157670       -5.0478048864       -3.1212904389
 H         0.5208097243       -6.1244028596       -1.9577818489
 H        -0.5181591549       -1.7065064001       -2.1382908973
 H         0.9431112859       -1.7789198869       -2.9108054433
 H         0.9221377242       -0.9544934546       -1.2443138491
 H         2.4970355329       -3.4474208612       -2.3381620210
 H         3.0179977903       -2.9266628392       -0.7460909841
 H         2.4651482765       -4.5528186432       -0.9329630430
 H        -1.8903222593       -5.7646596107       -3.3191786284
 H        -0.5493905183       -6.5388781421       -3.9903943424
 H        -2.8558334106       -3.9784139399       -2.4909246169
 H        -2.7301756473       -2.7762003684       -3.5748397074
 H        -2.2383168685       -2.2965136025       -5.7697400921
 H        -3.1531829775       -3.0100374143       -6.9380308633
 H        -1.3785365830       -3.1203705155       -7.0580136529
 H        -2.6135257238       -6.7058439374       -5.9525732221
 H        -3.3365174440       -5.5389343049       -7.2002218580
 H        -1.6905881222       -5.9217598054       -7.1641345548
 H        -5.4975956894       -2.6476516595       -3.6754574490
 H        -5.2928574940       -3.9337290675       -2.3312197810
 H        -4.9448488636        0.9020210901       -0.2637199684
 H        -6.5989703993        0.2766145823       -0.0904358763
 H        -7.6526256586       -1.5024223475       -0.9962112824
 H        -7.5928430704       -2.5037379383        0.2719719145
 H        -7.3054176807       -3.1309091798       -1.4244150554
 H        -4.1112444010       -3.9609734886        0.0087366686
 H        -4.8167256402       -3.5180179092        1.4151788686
 H        -5.9241624707       -4.2562859179        0.2029863171
 H        -4.6956780020        1.0155472808        2.2240858976
 H        -6.6262797384        1.1382499570        2.3241710394
 H        -4.5956750222        6.0002090927       -0.0802928022
 H        -3.3609764969        6.4712271212        1.0612956307
 H        -7.1102394602        4.4762965820        2.2667365925
 H        -6.3665360046        5.4320478374        0.9895415692
 H        -5.7253429611        5.8255923850        2.3961254895
 H        -4.0138681086        4.1275992370        3.8246418040
 H        -5.4646281611        3.1023878271        3.9566109641
 H        -3.9033388006        2.5601042620        3.2368993588
 H        -2.4963476061        6.3425102697       -1.2949174148
 H        -1.4160447334        5.5248677197       -0.0946106267
 H        -1.1994378739        0.6979125802        0.1206162053
 H        -2.4978572600        1.7970140801       -0.3310218390
 H        -1.7764787480        0.9018157810       -1.5599405852
 H        -1.6473990136        3.7249254638       -4.0320107266
 H        -2.1890533685        2.2920115014       -3.1338021374
 H        -0.4103792708        2.5322642214       -3.5838389686
 H        -0.3361775071        5.5900662049       -2.9150723561
 H        -0.0570849178        5.5339453645       -1.2986264550
 H         0.8655481537        4.5133758118       -2.2337032978
 Na        1.6987772707        1.2782858290        0.6378797337
