155

 C         4.6449453896        0.2367169334       -2.3157000558
 C         3.8492169748        1.2773984881       -1.5672618124
 C         4.5029139271        2.6035040767       -1.0721771838
 C         4.7223789413        2.4934603578        0.4853816812
 C         6.0905880951        2.8351040839        1.0810650650
 C         5.8334032390        2.8442050079       -1.8666221267
 C         3.4770309980        3.8903667359       -1.3809925178
 O         2.6155782980        1.2198083576       -1.4946227436
 O         3.7960108820        2.2478795277        1.2443440820
 C         6.3567567674        2.2858276250        2.4864277378
 C         6.5233858269        0.7380184857        2.5832911955
 C         6.7650357327        0.2147589775        3.9776120979
 C         5.1895651093       -0.2636741765        4.3702299066
 C         4.6440490095       -1.5419030519        3.6655913737
 O         6.4663307100       -0.0084881393        1.6357623622
 O         4.6433781544        0.3886757141        5.2187023298
 C         7.7231128388       -0.9961130729        3.9877184845
 C         7.3130500776        1.3127536452        4.9244861112
 C         3.2127840873       -1.7816470551        4.0413558329
 C         2.3350319041       -0.7101881219        3.3974144550
 C         0.8881490556       -0.4783094877        3.9420770539
 C        -0.0896204883       -0.7984227474        2.6566235035
 C        -0.7037693600       -2.2694419354        2.4288586484
 C         0.5561932014       -1.3443528455        5.1047758206
 C         1.0184835733        1.0512880103        4.2386228132
 O         2.6807403045       -0.3005650542        2.3024901707
 O        -0.0865559893       -0.0620184807        1.7271520896
 C        -0.7385737288       -2.7809967022        0.9283691034
 C         0.6385425857       -2.9699867829        0.3472811221
 C         0.8757965242       -3.0593150793       -1.1880587136
 C        -0.1727627378       -4.1130634689       -1.7348085503
 C         0.2170377153       -5.2969793765       -2.5646378206
 O         1.5771212733       -3.1014372904        1.1416282802
 O        -1.3655260661       -4.0475678292       -1.4627367804
 C         0.4998025831       -1.7373267697       -1.8450287899
 C         2.2771945906       -3.5856449767       -1.4101229545
 C        -0.8160203645       -5.7536651947       -3.6436509453
 C        -0.8905943430       -4.5410513456       -4.6264722567
 C        -2.1703465436       -4.3300251363       -5.4815013390
 C        -3.5039482440       -4.3551865777       -4.5873679700
 C        -3.5371146170       -3.3617898341       -3.3205841720
 C        -2.1344093254       -3.0161385543       -6.3024733765
 C        -2.1677371633       -5.5868876447       -6.4145914415
 O         0.0542121857       -3.8020376060       -4.7565976269
 O        -4.4314797449       -5.0910579261       -4.8063698985
 C        -4.9814158485       -3.0165057501       -2.9103270628
 C        -4.9220748208       -2.0108232921       -1.7272043957
 C        -5.6802542609       -2.4061508505       -0.3673296647
 C        -5.2715805106       -1.1320539290        0.6672846678
 C        -5.7963236734        0.2257956052        0.3355471056
 O        -4.2404748524       -1.0382846351       -1.8359600986
 O        -4.6647617869       -1.3628879877        1.6907700422
 C        -7.1696251995       -2.4395026674       -0.5327517595
 C        -5.0768383024       -3.8138248527        0.0495869515
 C        -5.3979845696        1.2739362104        1.4441340786
 C        -5.7373373045        2.6764241043        1.0302062023
 C        -5.1606178262        3.9519187558        1.9557382376
 C        -3.8951491578        4.3407911635        1.1947512578
 C        -3.9662494749        5.4560821731        0.1546389717
 C        -6.2295908054        5.0530841807        1.9732620042
 C        -4.8476998156        3.5568176531        3.4082833149
 O        -6.3646922558        2.9822279604        0.0725548813
 O        -2.8968066597        3.6320291943        1.2521248988
 C        -2.7284174340        5.5677147924       -0.6483980270
 C        -2.5291155718        4.2721942156       -1.3990258079
 C        -1.1241845730        3.7674475255       -1.9121520567
 C        -0.6366071132        2.7138378188       -0.8243908046
 C        -1.5321495485        1.4824230564       -0.5487230961
 O        -3.5286138447        3.6200866629       -1.6468634696
 O         0.3748936307        2.9695723157       -0.1578743781
 C        -1.3786018595        3.0640310213       -3.2184268573
 C        -0.1097862445        4.8098120614       -2.0853584873
 H         4.5603305794        0.3113835165       -3.4299033685
 H         5.6701862135        0.4083500692       -2.1173200345
 H         4.4690607815       -0.8789640880       -1.9976039688
 H         6.8455442952        2.3088645043        0.4187927032
 H         6.3598616121        3.8845843439        0.9061069349
 H         6.5875776702        2.0768623334       -1.6689282347
 H         6.2693135621        3.7777956758       -1.5368675163
 H         5.5879555988        2.8788608145       -2.9625086538
 H         2.5932817039        3.6173862989       -0.8785961999
 H         3.9256384508        4.7417505046       -0.8784701871
 H         3.2161576744        3.9490044705       -2.4332774158
 H         7.2869610381        2.5990095580        2.9331758653
 H         5.5736039313        2.4024683981        3.1529266371
 H         4.8281221852       -1.5310406212        2.6245487226
 H         5.1585890801       -2.4273225285        4.0067220078
 H         7.8392859782       -1.2579816756        5.0485132940
 H         8.6551963854       -0.7911399861        3.5664832459
 H         7.3651158684       -1.8515944361        3.3739613001
 H         6.6158869610        2.1603084752        5.0024927783
 H         7.5009758884        0.9445062735        5.9061830925
 H         8.2532659589        1.7707867885        4.5921624919
 H         3.0263610962       -2.0235051330        5.0949841617
 H         2.9557800906       -2.6983844860        3.4482298540
 H        -0.0663896698       -2.9982712490        3.0300690739
 H        -1.6921363734       -2.2115795585        2.7588828448
 H        -0.3511708951       -1.1358609481        5.5297899488
 H         1.2028276983       -1.2558478478        5.9650444174
 H         0.3394361767       -2.3605250298        4.7629302910
 H         1.8887271372        1.5584611216        4.6280299588
 H         0.7419579334        1.4678739225        3.2420698481
 H         0.2030013306        1.5006315210        4.7807978153
 H        -1.2248832683       -3.7658808099        0.8850206176
 H        -1.3478667790       -2.2244087712        0.3241042096
 H         1.1453001057       -5.0857800458       -3.0860550499
 H         0.4793710910       -6.1256492799       -1.9135925112
 H        -0.5763457021       -1.5383354139       -1.7330065351
 H         0.6409433823       -1.9099579800       -2.8856309675
 H         1.0244087724       -0.8766545692       -1.4283946967
 H         2.5524386321       -3.6535427024       -2.4141375007
 H         3.0215562735       -2.8904889853       -0.9693280426
 H         2.3082414849       -4.5061758957       -0.8195724599
 H        -1.7343890661       -6.2007023356       -3.3650265476
 H        -0.4338060765       -6.6262202476       -4.2806646396
 H        -2.9075167802       -3.8662971264       -2.5456770751
 H        -2.9462019563       -2.4241436316       -3.4554630746
 H        -1.9142880783       -2.0829109043       -5.7395737178
 H        -3.1251380660       -2.7728006882       -6.7781179549
 H        -1.3429047189       -3.1823516181       -7.1103739502
 H        -2.6223634627       -6.4933507602       -6.0141104469
 H        -2.7246754844       -5.3774034354       -7.3292142458
 H        -1.1322629677       -5.8979314792       -6.7390307013
 H        -5.4929891668       -2.6184541601       -3.7658797732
 H        -5.4921298140       -3.9411225347       -2.5502617917
 H        -5.3806014257        0.3592692805       -0.6843590999
 H        -6.8519687608        0.2546748389        0.1805316573
 H        -7.5922123071       -1.3496231009       -0.5914788827
 H        -7.8544106594       -2.8774892539        0.2458610654
 H        -7.4151832338       -2.8452935278       -1.4641411543
 H        -4.0107086570       -3.8944239391       -0.2185520800
 H        -4.9293520426       -3.9635890570        1.0839037024
 H        -5.6926747463       -4.6107310186       -0.3717152853
 H        -4.4102856497        1.1940264881        1.7223861989
 H        -6.0537797929        1.0720831283        2.2649267627
 H        -4.8828331023        5.1771447475       -0.3559366292
 H        -4.0443762524        6.4955683879        0.5473160201
 H        -6.9411114548        4.9323223142        2.7821339605
 H        -6.7481983814        5.0814417774        1.0383278703
 H        -5.8118311457        6.0457027371        1.9194430421
 H        -4.7926336863        4.4716968382        3.9702384754
 H        -5.6265312061        2.9364498870        3.8439481826
 H        -3.8541479215        3.2076838930        3.5958271449
 H        -2.7108849063        6.3620719983       -1.4149923287
 H        -1.8697561572        5.6387087792       -0.0231169730
 H        -1.1124375118        0.5863596316       -1.0182471192
 H        -1.6663052071        1.2162203761        0.4795817137
 H        -2.5406218734        1.5970268709       -0.9427864413
 H        -1.8922077331        3.7867153720       -3.8917818788
 H        -2.1191272885        2.2614232431       -2.9812913251
 H        -0.4203311953        2.7913991478       -3.5424319188
 H        -0.4778974363        5.6498465154       -2.6068095915
 H         0.3636483459        5.2408702357       -1.2271888654
 H         0.7956375395        4.3962014035       -2.6130883877
 Na        1.7384607088        1.2161891116        0.9810353780
