155

 C         4.7682641910        0.2007525729       -2.0361289739
 C         3.8820927527        1.1450899730       -1.3407725140
 C         4.4600158220        2.5749097590       -1.1729385179
 C         4.7102309757        2.6246558318        0.4999029451
 C         6.1699991074        2.9382394506        1.0526123543
 C         5.6506950300        2.7801626883       -2.1156383798
 C         3.4249107493        3.7021082994       -1.4243118481
 O         2.8035417133        0.7823150227       -0.8515796448
 O         3.7683199683        2.5988883023        1.2293809484
 C         6.3307623058        2.4894686673        2.4978568042
 C         6.5416213830        0.9758539883        2.6254428665
 C         6.8590333131        0.2429903516        4.0628291472
 C         5.5601707140       -0.3936946831        4.6916368186
 C         4.7619201159       -1.5466395642        3.8005044898
 O         6.3520904858        0.2018365371        1.7118675915
 O         5.1204721082        0.0023529706        5.7778062823
 C         7.9594263399       -0.8654619675        3.7223671483
 C         7.3179109688        1.1871765325        5.1856158711
 C         3.2946389022       -1.6486981096        4.1671665439
 C         2.3539598571       -0.7131621530        3.3251766146
 C         0.8964317777       -0.7802078214        3.8515125189
 C         0.0157193386       -1.1132586690        2.5184941177
 C        -0.5890372737       -2.4537586716        2.4318544920
 C         0.6026183275       -1.8082743195        4.9654826473
 C         0.3830898228        0.6770976222        4.2177367824
 O         2.7565804838        0.1666301458        2.5368357786
 O         0.0555422692       -0.3890182691        1.5343254284
 C        -0.5912226162       -2.9469171262        0.9929265852
 C         0.7991526212       -3.0480945199        0.3963766414
 C         0.9134522848       -3.1773255383       -1.1541086538
 C        -0.1043372257       -4.1661883203       -1.6904074745
 C         0.1969780665       -5.4916378075       -2.4602954153
 O         1.8072890706       -2.9724039719        1.0960733959
 O        -1.2873589018       -3.8801541859       -1.3957338662
 C         0.4601799183       -1.7840401349       -1.8060724462
 C         2.3702050944       -3.6317141057       -1.5476867424
 C        -0.8442316002       -5.7740086657       -3.6041719590
 C        -0.8523549656       -4.4887651555       -4.4890062436
 C        -2.0177213944       -4.2688520962       -5.4707435056
 C        -3.4604985163       -4.1196477237       -4.7291165497
 C        -3.7619938107       -2.7754739810       -3.8934025745
 C        -1.7718389275       -2.9282855619       -6.1954534285
 C        -2.1201267023       -5.3876462726       -6.5797542597
 O         0.0283407261       -3.6890022671       -4.2847693756
 O        -4.2088567092       -5.0479075496       -4.6647546701
 C        -4.9419898757       -3.0432420081       -2.8819307125
 C        -4.9609686467       -2.0436869323       -1.7751419035
 C        -5.5697434794       -2.3302779084       -0.3828146970
 C        -5.1954704976       -1.1122765245        0.5028332308
 C        -6.0982891981        0.1324663677        0.4491168993
 O        -4.5026023326       -0.9415422736       -2.0022569373
 O        -4.3093537558       -1.2269404754        1.2860967159
 C        -7.1097647295       -2.2964920857       -0.6156301155
 C        -5.1492213887       -3.7045878943        0.0430479633
 C        -5.1401836350        1.2934632247        1.0142948037
 C        -5.9539191568        2.5723116573        1.0336258795
 C        -5.3996728730        3.7891781265        1.8849992981
 C        -4.1343699773        4.3460532256        1.1367471591
 C        -4.2736268275        5.3179233100       -0.0078571262
 C        -6.5793275949        4.7842838656        1.9544917744
 C        -5.1134168217        3.3344394368        3.2855826020
 O        -6.8543738985        2.7375435203        0.1980380294
 O        -3.0165905897        3.9294476587        1.4750618941
 C        -3.0407576487        5.3834156437       -0.8226714223
 C        -2.7012524559        4.1887067630       -1.7683254229
 C        -1.1650240803        3.8687243252       -1.9650689376
 C        -0.6910278063        2.8015282433       -0.8562676287
 C        -1.4509430852        1.5901644516       -0.6328973871
 O        -3.5978276464        3.3783887204       -1.9815958094
 O         0.2917978583        3.1108088361       -0.2052121232
 C        -0.8588459942        3.1970922795       -3.3565820134
 C        -0.3659858556        5.1871008650       -1.8907854181
 H         5.1774270507        0.4948619010       -2.9940554314
 H         5.6892064655        0.2378247550       -1.4308798813
 H         4.5033948607       -0.8771814900       -1.9091364632
 H         6.9461900518        2.4949635051        0.3362196806
 H         6.4145188719        3.9951058227        1.1370476872
 H         6.4352547168        2.0857651929       -1.9510726536
 H         5.9185450840        3.7811565295       -2.0742798751
 H         5.2349866692        2.6596659245       -3.1199388262
 H         2.6222574296        3.3757329038       -0.7811779383
 H         3.8396189076        4.6139377589       -1.1657640601
 H         3.1976518479        3.7786623926       -2.4623899464
 H         7.1498140638        2.9673694786        3.0440716274
 H         5.4261875506        2.6064293084        2.9323479808
 H         4.7072252189       -1.3012323260        2.7639386719
 H         5.3259645904       -2.4746419505        3.8951375405
 H         8.1319597996       -1.6336895180        4.4944248769
 H         8.9384500968       -0.4390271887        3.5880867404
 H         7.5965449601       -1.3062778109        2.7588043079
 H         6.5764804775        1.9918837422        5.3849909767
 H         7.3931643301        0.7528995524        6.2381363898
 H         8.3802650460        1.5092025278        4.9817991384
 H         3.0576344963       -1.3535163788        5.2227240046
 H         2.8286988053       -2.6742900414        4.1394997689
 H         0.0932965475       -3.0979886687        3.0419660511
 H        -1.6014059175       -2.4412229972        2.7624925232
 H        -0.4286462921       -1.7619877356        5.2477027016
 H         1.0074773558       -1.4230216100        5.9223572597
 H         1.0545490102       -2.8510973842        4.9505477516
 H         0.5645350918        0.9092823186        5.2385675439
 H         1.0499974751        1.4941035517        3.7944602733
 H        -0.6022606099        1.0622135462        3.8130535874
 H        -1.0244757936       -3.9768820064        0.9585388093
 H        -1.1659611166       -2.2969843873        0.4231178482
 H         1.1524929104       -5.5053494558       -3.0099178570
 H         0.1165005953       -6.3151560454       -1.7365838348
 H        -0.6170488973       -1.6848664624       -1.6828378877
 H         0.9011676186       -1.8065878135       -2.7668087989
 H         0.7611637478       -0.8958663974       -1.2258979676
 H         2.5225801694       -3.5319686158       -2.5499221665
 H         3.0901857921       -2.9864670913       -1.0657092188
 H         2.5082084878       -4.6808902860       -1.2361396743
 H        -1.8570076088       -6.1180284496       -3.4376982830
 H        -0.4896186618       -6.6633078175       -4.2091549465
 H        -2.8426610498       -2.5459893476       -3.2675223844
 H        -3.9339649782       -1.9385408237       -4.6456558690
 H        -1.5595184771       -2.1028616541       -5.4343852906
 H        -2.5318881287       -2.6532227722       -6.8565541702
 H        -0.8915213438       -2.8820811555       -6.9171850668
 H        -2.1246216214       -6.4247842108       -6.1985761561
 H        -3.1267144281       -5.3917080054       -6.9192050825
 H        -1.3588033220       -5.3065955188       -7.3629179354
 H        -5.9497019459       -2.8855019991       -3.3210930733
 H        -5.0655624178       -4.1333477290       -2.6499044905
 H        -6.4949125629        0.3310211061       -0.5853159178
 H        -7.0065260216       -0.1750131178        0.9493377447
 H        -7.3603960260       -1.4376359169       -1.3352952484
 H        -7.7691109672       -2.2518824691        0.2520656023
 H        -7.4634955068       -3.2826897309       -0.9819079002
 H        -4.1255880039       -3.6728170384        0.5431333997
 H        -5.8573577583       -3.9931551339        0.8365925523
 H        -4.9656662506       -4.4915866014       -0.6911215642
 H        -4.2777649428        1.3524499279        0.3612072101
 H        -4.7727557464        1.0771621064        1.9731150173
 H        -5.1281173979        5.1291903955       -0.5864435861
 H        -4.4344648903        6.2962584700        0.3941041872
 H        -7.4890364920        4.2401444092        2.2684593038
 H        -6.8034075556        5.2570216044        1.0298779740
 H        -6.6059315707        5.4641874287        2.7834221690
 H        -4.7667985889        4.1184451846        3.9493426795
 H        -6.0921108920        2.9648350732        3.7037652892
 H        -4.4068777002        2.5097965204        3.3649276622
 H        -3.0005305734        6.3371816246       -1.3758193511
 H        -2.1136667136        5.2891238024       -0.2905225581
 H        -2.5545166746        1.8372014915       -0.6249825521
 H        -1.3304482822        0.8430135683       -1.3472140417
 H        -1.2105699389        1.1853662067        0.3506937716
 H        -0.6935802944        4.0562451327       -4.0248893091
 H        -1.7475017689        2.6554642248       -3.6543164724
 H         0.0107336329        2.6785107076       -3.2013201941
 H        -0.5704921399        5.8297124887       -2.6979169508
 H        -0.5049803839        5.7061371350       -0.9683279253
 H         0.7629572334        5.1007038704       -1.8893897362
 Na        1.6518460186        1.4211830277        1.0240005282
