155

 C        -9.6128167754       -4.2455120351        2.7413329402
 C        -8.8476256063       -5.0106540205        1.6335737947
 C        -8.3596732880       -6.4218108829        1.9291817554
 C        -6.7449339249       -6.3570437643        1.8219859101
 C        -6.1965751632       -5.7743491993        0.5981349694
 C        -8.7589868189       -6.9659481614        3.3902904289
 C        -8.7642492894       -7.3726566953        0.7218447361
 O        -8.6300066031       -4.4133109441        0.6038956188
 O        -6.0785937693       -6.7843158978        2.7858976410
 C        -5.8475071180       -4.1742040016        0.7947059688
 C        -4.6200129083       -3.8553181489        1.6356919076
 C        -4.6950081155       -2.7076910696        2.7478114882
 C        -4.4945456534       -1.3682584124        1.7602315654
 C        -3.0808461277       -0.8714765641        1.3822022295
 O        -3.6028985623       -4.4860380525        1.4264174387
 O        -5.4724769033       -0.8466142269        1.2474309773
 C        -6.0955030956       -2.8679819934        3.4828524069
 C        -3.5638240240       -2.8672887821        3.7027912998
 C        -3.2612380514        0.3745996445        0.5596018564
 C        -1.9925443873        0.8223850126       -0.1277256911
 C        -1.8342904374        1.9437356949       -1.2938976761
 C        -1.3740444925        3.2689872876       -0.6246434669
 C        -2.1070108243        4.5469595932       -1.2375632226
 C        -0.5729000702        1.5041289527       -2.1519592673
 C        -3.2274084277        1.9659293428       -2.0121054100
 O        -0.9501949182        0.3200460398        0.2627704688
 O        -0.4622575367        3.3249900961        0.1900991109
 C        -2.0750532173        5.6749783607       -0.2981538476
 C        -2.7972250467        5.3046475489        1.0097461772
 C        -3.0100730049        6.3330315003        2.2311502165
 C        -2.1686098115        5.6899669375        3.3547614633
 C        -2.6857116892        4.3478229815        3.9222814150
 O        -3.2936214019        4.1887861083        1.0875330351
 O        -1.1348669004        6.1915450512        3.7417679748
 C        -2.3211120397        7.7203551393        1.9685741028
 C        -4.4779420368        6.3590807795        2.5802644430
 C        -1.7166801754        3.7625795665        4.9015174073
 C        -0.9083371435        2.6669590246        4.2480665541
 C         0.0127159992        1.8589740221        5.2279843032
 C         1.5564013589        1.9912857497        4.5729474699
 C         2.2060275025        3.3397987817        4.5861531755
 C        -0.0385815319        2.3795863224        6.6831914711
 C        -0.4443793144        0.4026939661        5.2217802894
 O        -0.7880268108        2.6029050540        3.0163626515
 O         2.0375024706        1.0212239950        4.1362897435
 C         3.5365243516        3.2168817447        3.7506265077
 C         3.3217264372        3.0110624881        2.3025633367
 C         4.5641880582        2.4599542168        1.3906091829
 C         3.9632877554        1.3689552850        0.4125359092
 C         4.7895580398        0.9868218064       -0.7682191251
 O         2.2969933854        3.2781341188        1.7178927401
 O         2.9388888261        0.8564365644        0.7311792980
 C         5.1668622201        3.8178026094        0.7805869965
 C         5.8788175512        1.8317103971        2.1339105890
 C         4.1405844281        0.1927627062       -1.8440247497
 C         4.9449043506       -1.0854815262       -2.1599158737
 C         4.2811620972       -1.9387830534       -3.2529964202
 C         4.4180866895       -0.9731566636       -4.6288238582
 C         5.4359693723       -1.3375447294       -5.6983008820
 C         4.9718241133       -3.3197710745       -3.3993781558
 C         2.8432434522       -2.1794939161       -2.8537235036
 O         5.9693679692       -1.3755973290       -1.5238806206
 O         3.6351877173       -0.0499361442       -4.7376638097
 C         4.8061057315       -1.7884924519       -6.9852959206
 C         5.8510593733       -1.7315679611       -8.1662136647
 C         5.5639235347       -2.3621112656       -9.6080930762
 C         6.3110504559       -3.6906875969       -9.5800931278
 C         7.7169723902       -3.7441390642      -10.2409927639
 O         6.9764693251       -1.3437460802       -7.8773743097
 O         5.9192431424       -4.7166174446       -9.1303915464
 C         4.1044070564       -2.5062534795      -10.0795948357
 C         6.1919414664       -1.3618750825      -10.5939215215
 H       -10.6037157273       -4.6360734575        2.9082300205
 H        -9.1002220592       -4.1878025427        3.6772843504
 H        -9.7339944951       -3.1965618146        2.4735557772
 H        -5.2148710023       -6.3093192530        0.3112562519
 H        -6.8556753658       -5.9773723803       -0.2629964899
 H        -8.0230212775       -7.5946290144        3.8658505291
 H        -9.7075960452       -7.5682378859        3.2732035912
 H        -8.7941386481       -6.0594194707        4.0190894710
 H        -9.8421901838       -7.6740465471        0.5802564629
 H        -8.6443763748       -6.8515195498       -0.2466829418
 H        -8.1391826709       -8.3385726899        0.5174367664
 H        -5.8324844230       -3.6359995613       -0.1757330429
 H        -6.7743698051       -3.7482315359        1.2235206971
 H        -2.4978908678       -0.6329674385        2.3334377654
 H        -2.6781332507       -1.6881301325        0.8080182959
 H        -6.0096784991       -2.2132942144        4.3598895194
 H        -6.2382896364       -3.9311933080        3.5930640828
 H        -6.9259419248       -2.5103730698        2.7963509326
 H        -3.5481905883       -3.7011499449        4.3009308684
 H        -2.7178741643       -3.1569099849        3.1219099736
 H        -3.2980182280       -2.0301765931        4.3279771582
 H        -3.4491866689        1.2668441807        1.1300720733
 H        -4.0946738828        0.1885772249       -0.0897893255
 H        -1.6864750371        4.7911607379       -2.1680803334
 H        -3.1122524662        4.2358718053       -1.3899464456
 H         0.2063944830        1.3604008802       -1.4300129416
 H        -0.5051917389        2.3018834020       -2.8593323108
 H        -0.7145621975        0.5085725062       -2.5252861515
 H        -3.5459535437        0.9735950772       -2.3277021825
 H        -4.0573680935        2.3129612552       -1.3154117407
 H        -3.2785474853        2.7367505787       -2.8100675652
 H        -1.0525748278        6.1603155489       -0.2721105789
 H        -2.8301205105        6.3946979619       -0.6792104844
 H        -3.6776662870        4.5396602300        4.3508984476
 H        -2.8229693506        3.7046509733        3.0499778901
 H        -1.3815674749        7.5535746330        1.5435836533
 H        -2.3055312696        8.4032589282        2.7941141497
 H        -3.0380209312        8.1834801194        1.3173982191
 H        -4.9266278986        7.0231225503        1.8189168575
 H        -4.7994641520        5.3343667400        2.4035722539
 H        -4.6506066837        6.6670436674        3.6161958416
 H        -2.2914208807        3.3472123345        5.6876209085
 H        -1.1211936296        4.5546810108        5.3986710821
 H         1.4856943170        4.1001883886        4.1412217682
 H         2.3405325128        3.7122039996        5.5779975844
 H         0.0004051960        3.4427486978        6.7194923027
 H         0.8845743304        2.1309436518        7.3125943110
 H        -0.8445324858        1.9472743203        7.1142478493
 H         0.5086870560       -0.0856617656        5.5479215906
 H        -1.2480521393        0.1499298313        5.8443152796
 H        -0.6896799931        0.1417162166        4.1862239853
 H         4.0729515580        4.1946584521        3.9007365436
 H         4.2387150527        2.3882987078        4.0124427643
 H         5.3248134653        1.8610935284       -1.2565229242
 H         5.7188228896        0.3450025932       -0.4285025023
 H         5.3847755024        4.5636814698        1.5666461802
 H         4.4215484268        4.3359125046        0.1266013328
 H         6.0335032684        3.6420287293        0.1141043984
 H         6.5798126906        1.7995336810        1.3530200783
 H         6.2259463439        2.4033303838        3.0513731145
 H         5.7231811038        0.8062005724        2.4940905321
 H         4.0381880323        0.7571660506       -2.8023310944
 H         3.1203604297       -0.1494281291       -1.5557899286
 H         6.0406053219       -0.4689014736       -5.9188057680
 H         6.1442306567       -2.1344619459       -5.4336944671
 H         5.9711030753       -3.4376734370       -3.6510965997
 H         4.3454684518       -3.9318446749       -4.0472288602
 H         4.8184461798       -3.9280919537       -2.5356763962
 H         2.3336673075       -1.2849756169       -3.0079143729
 H         2.2870902082       -2.8079709475       -3.5364153738
 H         2.9200948851       -2.6028524974       -1.8591617559
 H         4.4491915500       -2.7847375781       -6.9886207377
 H         3.9216140378       -1.2319624403       -7.1574982359
 H         8.5057851065       -2.9822956520      -10.1502498945
 H         7.9986851111       -4.7810966367      -10.2442166009
 H         7.6314367423       -3.6498500137      -11.3444677842
 H         3.6852783633       -1.4306733051      -10.1138727678
 H         3.4968774162       -3.0674878385       -9.4197010816
 H         4.0159130505       -2.9375440063      -11.1434151521
 H         5.8853972723       -1.6019336357      -11.5407564418
 H         5.7004927588       -0.4240357478      -10.4137668742
 H         7.2061387050       -1.3128145956      -10.3058709859
 Na        0.6331095691        1.7375427111        1.4271452792
