155

 C         5.4679678729       -0.3690056945       -1.0230417583
 C         4.3413251284        0.6549209700       -0.5793128566
 C         4.6057926753        2.2944329149       -0.8656512828
 C         4.5588405587        2.8935385192        0.6496323944
 C         5.8613562921        3.5131064969        1.2395833990
 C         5.9287741261        2.5914029842       -1.6548544036
 C         3.5116280920        2.7508424995       -1.8189118947
 O         3.2880237350        0.2706900743       -0.1950708626
 O         3.5403322643        2.8938829482        1.2810919021
 C         6.1159086550        2.9359795572        2.6880905724
 C         6.4945919486        1.4268271226        2.7149448054
 C         6.8847172171        0.7846731680        4.1256910699
 C         5.4735167139        0.2378769946        4.7359627291
 C         4.8497048011       -1.0735240081        4.3478817901
 O         6.4480361049        0.7356263755        1.6903763218
 O         4.8320626011        0.9636621757        5.4244547883
 C         7.8358347804       -0.4567832657        3.8804097456
 C         7.4016092955        1.8776234456        5.1844835101
 C         3.4906351567       -1.2102954366        5.0023988590
 C         2.4256570337       -0.5790951541        4.1208965635
 C         0.9410280637       -0.9055064267        4.0868471953
 C         0.5840186802       -1.3294657673        2.5546831913
 C        -0.4870747092       -2.4421249759        2.4504879876
 C         0.5468858627       -1.9251038464        5.1462858686
 C        -0.0262988602        0.3857596575        4.2747338904
 O         2.8315995732        0.4130952380        3.4725849576
 O         1.0453218573       -0.8172846096        1.5549175944
 C        -0.5470605731       -3.0946987701        1.0611714391
 C         0.8638650925       -3.6349316982        0.7131799045
 C         1.3272950049       -3.6838007972       -0.7990866515
 C         0.1606252493       -4.2399856168       -1.6843077145
 C         0.5224772375       -4.4799594647       -3.1782632269
 O         1.7434373901       -3.7707601218        1.5606548215
 O        -0.9119805673       -4.4068877254       -1.2731747205
 C         1.8196190398       -2.1800731220       -1.1346252196
 C         2.5062064654       -4.6202123219       -0.8125709927
 C        -0.4520134458       -4.8700217633       -4.2721843196
 C        -0.7575547380       -3.6998517093       -5.1920655954
 C        -1.8768580375       -3.9040539808       -6.3664374880
 C        -3.1586676903       -4.0791564573       -5.4399363547
 C        -3.7154891714       -2.8842358988       -4.5465883677
 C        -1.8087071175       -2.6333733801       -7.2746654610
 C        -1.6209600470       -5.2196755195       -7.2530387289
 O        -0.1869371114       -2.6317831592       -5.0622772367
 O        -3.6334814303       -5.1934859836       -5.3783827764
 C        -4.7264444464       -3.3338504325       -3.5449076202
 C        -5.0132078980       -2.1925748158       -2.5410678475
 C        -5.2091623629       -2.5422957107       -1.0221944206
 C        -4.9500133723       -1.2952161225       -0.2180135097
 C        -6.0700690247       -0.4126259264        0.2461949834
 O        -5.2736290582       -1.0809637576       -2.9322150089
 O        -3.7806166137       -0.9555133678        0.0099836906
 C        -6.6434847602       -2.9826267229       -0.7787145033
 C        -4.1239038915       -3.5540253930       -0.5518965904
 C        -5.4604435446        0.9616231316        0.7399602982
 C        -6.6687828500        2.0616544216        0.5876780535
 C        -6.6177067305        3.4113418857        1.4123605978
 C        -5.2720887241        4.2778983393        1.0999240131
 C        -5.3166985828        4.8886270695       -0.3769712783
 C        -7.9047670691        4.2924006202        1.0547980728
 C        -6.6644876521        3.0203695665        2.8853864144
 O        -7.6192861693        1.7826103748       -0.1600995233
 O        -4.4791213062        4.7507540287        1.9200913067
 C        -3.8386478829        5.3041558546       -0.8002758013
 C        -2.8987619882        4.0833560124       -0.7848143053
 C        -1.2928143547        4.3053985986       -0.9432178292
 C        -0.4464646544        2.9786348563       -0.4598139838
 C        -0.8863704724        1.6641976137       -0.9452146838
 O        -3.2766492196        2.9354075079       -0.6346682872
 O         0.4979356399        3.0974489595        0.3707577924
 C        -1.0063257324        4.2643816958       -2.5324481668
 C        -0.7239712883        5.6084249301       -0.4484160478
 H         5.1795703568       -1.3893281940       -1.3578476980
 H         6.2059393039        0.0303656853       -1.7730856678
 H         6.1041075011       -0.5598574230       -0.0859019261
 H         6.7896494211        3.3157178912        0.7460961793
 H         5.8784525039        4.6218223075        1.3951154830
 H         6.8946636462        2.2020822339       -1.3070426370
 H         6.0982922456        3.6910573452       -1.7488194663
 H         5.7895517761        2.2303461846       -2.6558759510
 H         2.4816621626        2.5561270566       -1.5008654491
 H         3.6290827940        3.8242901746       -1.9969640598
 H         3.7996250494        2.3782613644       -2.7416151816
 H         6.8521794339        3.5769928505        3.1819272161
 H         5.1796174962        2.9743659656        3.4173281478
 H         4.8851792936       -1.4057471931        3.3444603567
 H         5.4624905383       -1.8625085714        4.7531083090
 H         7.8479756079       -0.9447252502        4.8597748451
 H         8.8412082996       -0.1806095115        3.5520239598
 H         7.3961654685       -1.1795414654        3.2037677207
 H         6.5319110026        2.5709795954        5.4153204887
 H         7.6002518891        1.2322261382        6.0695872465
 H         8.3044377744        2.4713370475        4.8684775314
 H         3.4415288609       -0.5008513813        5.8968518249
 H         3.2044082614       -2.1974413411        5.3729498762
 H        -0.2260079093       -3.1143328793        3.2145687008
 H        -1.4830944218       -1.8783777541        2.7437665779
 H        -0.4074164351       -2.2468529554        5.0148821313
 H         0.7729461047       -1.3929696997        6.0785155316
 H         1.3149006294       -2.7316009678        5.2814742870
 H         0.1527488526        0.8247183564        5.2969536863
 H         0.2895896363        1.0808312554        3.4772841577
 H        -1.0156064163        0.1340764608        3.9868042250
 H        -1.1771011694       -3.9289465749        1.0668962330
 H        -1.0116860756       -2.4852797805        0.2806566562
 H         1.1695871306       -3.7243986000       -3.4897601135
 H         1.3378817192       -5.1831840382       -3.1888139856
 H         0.9242457957       -1.5490273176       -0.9956992044
 H         2.4102667354       -2.1673587873       -2.1240890762
 H         2.5064603548       -1.8375729070       -0.3157904305
 H         2.8969534160       -4.7633988654       -1.7650509044
 H         3.2732039810       -4.2439068054       -0.1202225243
 H         2.2702670049       -5.6053666635       -0.5285809195
 H        -1.4051038249       -5.2810241239       -3.8707506266
 H        -0.0334457317       -5.5141459556       -5.0199989695
 H        -2.8089848987       -2.4138794612       -4.0410065358
 H        -4.2000640579       -2.1261693766       -5.1490135233
 H        -1.6878333064       -1.7193608478       -6.6587296581
 H        -2.6140267409       -2.6302633322       -8.0005569830
 H        -0.8705914972       -2.5024652719       -7.8919177547
 H        -1.5558080234       -5.0121271663       -8.2864701016
 H        -0.6798175212       -5.6673093627       -6.9106250696
 H        -2.4296785079       -5.8038295711       -6.9137726439
 H        -5.7110718376       -3.5003424480       -4.0962461979
 H        -4.4858777211       -4.2784565492       -3.1676959643
 H        -6.8220029341       -0.3529160588       -0.4824573740
 H        -6.4897972508       -0.8784363732        1.1503076491
 H        -7.2472774167       -2.2021434489       -1.3178319751
 H        -6.6946102573       -3.0756570783        0.3134930975
 H        -6.9533471171       -3.9546001345       -1.2177927540
 H        -3.1351286781       -3.2085270950       -0.6952635123
 H        -4.4798217290       -3.9413729338        0.3888840252
 H        -4.1994261790       -4.4275671741       -1.2038525315
 H        -4.6673006583        1.1967886485        0.0525483388
 H        -5.2475870754        0.9031847185        1.8282776675
 H        -5.6958462050        4.1740290728       -1.1828448282
 H        -5.8924945595        5.7847096614       -0.3429284709
 H        -8.7957591276        3.7279617346        1.1114585273
 H        -7.8910007316        4.4806824492       -0.0429670409
 H        -7.9465196920        5.0391864329        1.8354525083
 H        -7.1417093501        3.8538382320        3.4162473116
 H        -7.2232049355        2.1642480043        3.1429299472
 H        -5.6558719337        2.7725690538        3.2554636939
 H        -3.9795901492        5.6149302023       -1.7841614255
 H        -3.5674296470        6.2388159429       -0.3199602487
 H        -0.0209840131        0.9915446648       -0.9395580527
 H        -1.5435463748        1.1568265107       -0.2442833423
 H        -1.4778562385        1.7072421241       -1.8517127301
 H        -1.4584999581        5.0977927317       -2.9811053188
 H        -1.4432663373        3.3141665655       -2.8402496978
 H         0.0975985617        4.2816751541       -2.6772852397
 H        -1.3378108068        6.5297589055       -0.6145032212
 H        -0.4894631245        5.4600003281        0.6172395845
 H         0.1221840621        5.8724871268       -0.9944099196
 Na        1.8298287193        1.2206227656        1.1887250621
