155

 C         5.5797397152        0.1829637720       -1.9148654275
 C         4.4784419536        1.0451282561       -1.2840527313
 C         4.8495775260        2.5288041706       -0.7656564758
 C         4.9444689208        2.5128273966        0.7875299798
 C         6.3866229199        2.9832764784        1.2360672344
 C         6.0930202548        3.2978495307       -1.4932308411
 C         3.5513859990        3.3603762582       -1.1470659679
 O         3.3895889019        0.5425029396       -1.0120769890
 O         4.0367849526        2.3614180630        1.5802259940
 C         6.5108258606        3.0085979329        2.8536572396
 C         6.5715786292        1.5277677078        3.2479400759
 C         6.6440126764        1.1695641477        4.7199187274
 C         5.0635140882        0.7920360331        4.9450267549
 C         4.6191645361       -0.5811927706        4.5385383329
 O         6.6588548008        0.5921584925        2.4374892152
 O         4.3989618151        1.6626921672        5.3755493084
 C         7.4501312709       -0.0743265086        4.9945315275
 C         7.0905935670        2.2761430207        5.6356716433
 C         3.1559084707       -1.0374103605        4.8538322072
 C         2.2484829976       -0.4873356071        3.6981695420
 C         0.6853251247       -0.2946594130        3.8482384110
 C         0.2338223761       -0.9353332750        2.4686769584
 C        -0.1611754595       -2.4313180048        2.4242402679
 C         0.0410094650       -1.0407810425        5.0106000942
 C         0.4629955603        1.2339909847        3.8951848170
 O         2.6964913021       -0.3592219434        2.5261012585
 O         0.1497657091       -0.2559130305        1.4288059131
 C        -0.2266992591       -2.8996215636        0.8987122090
 C         1.0289007439       -3.7215180356        0.4767546901
 C         1.4886460771       -3.9369382835       -1.0103388287
 C         0.3453281834       -4.4815628646       -1.9542632366
 C         0.7427677097       -4.9960168869       -3.3830821621
 O         1.7235412628       -4.2081681369        1.3653729660
 O        -0.7218727253       -4.5212101932       -1.5060599081
 C         2.1126010911       -2.5373920443       -1.5158931261
 C         2.5579485949       -5.0415538384       -1.0395833550
 C        -0.3576717036       -4.8704208968       -4.5173614543
 C        -0.6177584006       -3.5444655988       -5.2651694587
 C        -1.7441426631       -3.6291374745       -6.4264176831
 C        -2.9730433063       -4.0041219492       -5.6278134763
 C        -3.5955818750       -2.8895583108       -4.7184399444
 C        -1.8742163598       -2.2887632151       -7.0666519807
 C        -1.2748787139       -4.7930751737       -7.4260336489
 O        -0.1050273625       -2.4874245756       -4.9052411590
 O        -3.3396055854       -5.1594956084       -5.5076300033
 C        -4.4228178424       -3.4847277436       -3.5436014002
 C        -4.7390969393       -2.3251365633       -2.5523700198
 C        -4.8333639105       -2.7276538667       -1.0120388725
 C        -4.9290279643       -1.4510331809       -0.1115012589
 C        -5.6525514646       -0.1416490329       -0.5880710066
 O        -5.0673061840       -1.2846200535       -3.0989338152
 O        -4.3469121377       -1.4118630961        0.9780903772
 C        -6.2112211684       -3.5477036026       -0.8592174211
 C        -3.6434524456       -3.5361369052       -0.5521529129
 C        -6.3550936433        0.5557492999        0.5095046156
 C        -6.7594523015        1.9758297261        0.1005455007
 C        -7.1199654983        3.1445006140        1.1196510309
 C        -5.7911317991        4.0275097793        1.2598833267
 C        -5.4122986074        4.7275941467       -0.0275957821
 C        -8.3519000409        4.0561220657        0.5364471374
 C        -7.3073964728        2.5585794124        2.5181659348
 O        -6.8464642237        2.2219375187       -1.1081314804
 O        -5.1411436997        3.9670467938        2.2793299071
 C        -3.8686632176        5.1094965373       -0.1258360702
 C        -2.9988882026        3.7999364095       -0.0706477193
 C        -1.3953776162        3.9947596244       -0.3676707382
 C        -0.6526487141        2.6507760427       -0.1513464824
 C        -1.0905311669        1.5096755501       -1.1352648969
 O        -3.4500857589        2.7359366844        0.1750604434
 O         0.3066449397        2.5367833822        0.6108474278
 C        -1.1487415495        4.3623946299       -1.8423048391
 C        -0.7708025872        4.9518247081        0.7577297659
 H         5.0895001896       -0.8060819917       -2.0819610086
 H         6.0849318980        0.6409801072       -2.8293141152
 H         6.5092072038        0.0816366969       -1.2484087916
 H         7.0673410266        2.2076341096        0.8432652430
 H         6.5759417352        4.0416078574        1.0151666050
 H         7.0715162730        2.8482176515       -1.2800676430
 H         6.1073358318        4.3239779963       -1.1614339221
 H         6.0458282939        3.3060312201       -2.6079410917
 H         2.6910240946        3.4013242069       -0.4700060817
 H         3.9527889178        4.3674732351       -1.2898314626
 H         3.1469169349        2.9763087943       -2.0355665238
 H         7.3618471430        3.6801770311        3.1676294764
 H         5.5375743440        3.3627162805        3.1134521069
 H         4.7826192097       -0.7933513859        3.4975126302
 H         5.1513814999       -1.3599195116        5.0958947645
 H         7.4325888466       -0.3299756133        6.0162586654
 H         8.5591684831        0.1320534533        4.8754886417
 H         7.1766601819       -0.8941509540        4.4041400759
 H         6.2561317480        2.8776892117        6.0153634964
 H         7.5770229102        1.9859088346        6.5611940108
 H         7.8834142009        2.8586353217        5.1458358370
 H         2.8301663534       -0.5277614922        5.7759240920
 H         3.0794404981       -2.1611851634        5.0109539224
 H         0.6899371213       -2.9746532411        2.9156760001
 H        -1.1754605445       -2.4495519079        2.8510529871
 H        -0.9622166929       -1.2400327712        4.8432875739
 H        -0.0588254909       -0.5485047933        6.0324436629
 H         0.5297280581       -1.9756982868        5.3163101046
 H         1.0971036348        1.7494236817        4.6756625713
 H         0.8192723619        1.5967763299        2.9631746555
 H        -0.5767625799        1.4033200341        4.1153719495
 H        -1.0152759099       -3.6007997193        0.7790890130
 H        -0.4378040882       -1.9982047059        0.2668742102
 H         1.6909551804       -4.5437413519       -3.6458496595
 H         0.9462671346       -6.0525593631       -3.2730516381
 H         1.3461975777       -1.8313695682       -1.9353717984
 H         2.8669457341       -2.8139700943       -2.3594528689
 H         2.6541140521       -2.0140605904       -0.6928299803
 H         3.0186589248       -4.9491700305       -1.9795612765
 H         3.3882963381       -4.9088538733       -0.3553119488
 H         2.1265508411       -5.9360964062       -0.7835738433
 H        -1.1710785410       -5.3577070115       -4.0524062149
 H        -0.0626645519       -5.5802784606       -5.3590703800
 H        -2.9317185978       -2.1501327724       -4.3861764356
 H        -4.3278294688       -2.2837928440       -5.3281846907
 H        -2.1578036548       -1.5433946562       -6.2885591362
 H        -2.7796819086       -2.2854021539       -7.6898531401
 H        -0.9447073348       -2.1698482027       -7.6695708443
 H        -1.5194095607       -4.4251342369       -8.4162537154
 H        -0.2561787089       -4.9796579315       -7.1972871793
 H        -1.8659916171       -5.6187951226       -7.1846408517
 H        -5.3746860604       -3.8590572366       -3.9154964853
 H        -3.9114676518       -4.3485888805       -2.9951426938
 H        -4.9469175838        0.5470257550       -1.0755241686
 H        -6.3151694801       -0.4304030917       -1.3088292382
 H        -7.1174334875       -2.9477866976       -0.9244427922
 H        -6.2197163184       -4.0384377367        0.0950425744
 H        -6.2202178106       -4.4275219203       -1.5991421464
 H        -2.8500753106       -3.3424303933       -1.2032237859
 H        -3.2220359225       -2.9602121917        0.2862986858
 H        -3.8513601784       -4.5557312539       -0.3699681918
 H        -5.7282383216        0.4779714002        1.4606347691
 H        -7.1964531544        0.0128879206        0.8419612336
 H        -5.5280636107        4.0429020462       -0.8611753161
 H        -6.1653442397        5.5391864496       -0.2863165322
 H        -9.1818213814        3.4003427446        0.7417014515
 H        -8.1056726308        4.4651459667       -0.4735330830
 H        -8.3599879202        4.9898416276        1.0847210214
 H        -7.3787855962        3.3164638966        3.2739162926
 H        -8.1967908199        1.8672396115        2.6059414584
 H        -6.3755334882        2.0114057023        2.6985874280
 H        -3.8374337188        5.7339602743       -1.0010862319
 H        -3.6231848364        5.7634581940        0.6599798776
 H        -0.3387747133        0.8252146880       -1.4672769034
 H        -1.7770290924        0.8018285460       -0.6079239500
 H        -1.5768984254        1.8299908853       -2.0820665330
 H        -1.2444256046        5.4309138963       -1.9318002478
 H        -1.9677584721        4.0159913851       -2.4723889875
 H        -0.1182915265        4.0979171131       -2.2355466170
 H        -1.0272406058        5.9618097875        0.4270630041
 H        -1.1169565311        5.0062471466        1.7870043177
 H         0.3065149458        4.8220132126        0.8039683737
 Na        2.0902333275        1.3456117909        0.7909307908
