155

 C        -9.5619394901       -4.4666263841        2.8399077285
 C        -8.8686342245       -5.1193906180        1.6977894146
 C        -8.3162963910       -6.5426813586        1.8026744564
 C        -6.6569207450       -6.4778838065        1.8753786483
 C        -5.9071903899       -5.7907450130        0.7000803311
 C        -8.8837758275       -7.4112939316        2.9957618313
 C        -8.6359085231       -7.3371951917        0.4885672323
 O        -8.7533457532       -4.4776354274        0.6479868956
 O        -6.0648479850       -6.9711188305        2.8087066113
 C        -5.7597618578       -4.2984141962        0.7972671773
 C        -4.5283129858       -3.8746536498        1.5561956272
 C        -4.5541657176       -2.6141758470        2.5998200203
 C        -4.6617563742       -1.3308495899        1.7205564349
 C        -3.2472258256       -0.6461870411        1.4898151353
 O        -3.4847412026       -4.4711376774        1.3836040466
 O        -5.7264445255       -0.9067626646        1.3175014701
 C        -5.8763297029       -2.4601465311        3.5205365260
 C        -3.2252220138       -2.7469241782        3.4562827040
 C        -3.3059274115        0.3835702280        0.3581423399
 C        -1.8919344435        0.8562495505       -0.1439286076
 C        -1.8184746843        1.9144740398       -1.3665416306
 C        -1.4429121765        3.3207386269       -0.7265937839
 C        -1.9511753727        4.6621978843       -1.3190088148
 C        -0.6821336336        1.5704496539       -2.3269506142
 C        -3.1050736619        1.9533670977       -2.2538076786
 O        -0.8807511197        0.4343901812        0.3804768275
 O        -0.5674972189        3.3646533666        0.1134186975
 C        -1.8038408778        5.7657399156       -0.2420337417
 C        -2.6647008431        5.3666628139        0.9696127948
 C        -2.8238598456        6.3101639928        2.2231484962
 C        -1.9259439026        5.6917675582        3.3286250556
 C        -2.5347200574        4.4300708094        4.0067992380
 O        -3.2142408475        4.2868807124        0.9600069626
 O        -0.9836327452        6.2174940048        3.8885634892
 C        -2.3870355831        7.8241101191        1.8938284315
 C        -4.3333967314        6.3294893894        2.6297085172
 C        -1.6402971918        3.7721848626        5.0740371403
 C        -0.7090246099        2.7582792470        4.4344419705
 C         0.2205428288        1.8782613226        5.3555466224
 C         1.6794245060        1.9427058445        4.8269706133
 C         2.3438155338        3.3324534819        4.7166698347
 C         0.1543417446        2.3042384139        6.8999202907
 C        -0.2925300745        0.4472330088        5.1222291430
 O        -0.6873632659        2.5205890117        3.2440729478
 O         2.2286208210        0.9790071809        4.2721443958
 C         3.7131413869        3.3696511655        4.0453819973
 C         3.4556091490        3.1645898669        2.4296650272
 C         4.5315972752        2.5277806212        1.4809153204
 C         3.9313804246        1.5584144681        0.4485897866
 C         4.8607428824        1.0865159486       -0.6807562457
 O         2.3967846411        3.5906802462        1.9529568802
 O         2.7625713773        1.0644676550        0.4324934548
 C         5.0015773482        3.6848113099        0.5924263560
 C         5.6077648010        1.7422126873        2.2381938198
 C         4.0375851039        0.2261261809       -1.7785446364
 C         4.7492206702       -1.0581904284       -2.1912564825
 C         4.1602715388       -1.9287116127       -3.3263474944
 C         4.2112298282       -1.1193939209       -4.6823192966
 C         5.2827762710       -1.3653149309       -5.7382057542
 C         5.1363851214       -3.1205236948       -3.4658613515
 C         2.6576813561       -2.2931257797       -3.0290002049
 O         5.7146373615       -1.4105892256       -1.6179577928
 O         3.3280226448       -0.2920488172       -4.8636256049
 C         4.6286605217       -1.7846629692       -7.1112188340
 C         5.7751377527       -1.8733605618       -8.1468338345
 C         5.4050882711       -2.4512893922       -9.6368204326
 C         6.0251186343       -3.8094234790       -9.6367658734
 C         7.4429359921       -3.9549628088      -10.0657215721
 O         6.8559000996       -1.4985459948       -7.8346474903
 O         5.2926971555       -4.7090226176       -9.2257772825
 C         3.8553649217       -2.5139042083       -9.7059077305
 C         6.0349465987       -1.4017194309      -10.5453608257
 H       -10.3637191440       -5.1171884077        3.2108279911
 H        -8.8817787756       -4.3539336746        3.7095287540
 H        -9.9769009711       -3.4933586707        2.6448814997
 H        -4.9153417746       -6.1895788077        0.5502360237
 H        -6.4591136684       -5.9233691636       -0.2143063436
 H        -9.0981249224       -8.4053495601        2.5581043465
 H        -9.8224655841       -7.0904361206        3.2958059628
 H        -8.1205895947       -7.5599272445        3.7410201308
 H        -9.5412524120       -7.8664330301        0.5356505393
 H        -8.8848135712       -6.8062485039       -0.4272611586
 H        -7.9638792919       -8.0557160538        0.2715020337
 H        -5.5547757966       -3.9354325099       -0.2048368031
 H        -6.7367889082       -3.8970361484        1.0180782351
 H        -3.0615819497       -0.0210744053        2.3184499009
 H        -2.4905152868       -1.4188833497        1.3619391440
 H        -5.7157152699       -1.5099898314        3.9874706473
 H        -6.0245590653       -3.3518079409        4.1475447421
 H        -6.6975041708       -2.3631042224        2.8286489664
 H        -3.3385804459       -3.5000864624        4.3040103996
 H        -2.2313133079       -2.9735156165        3.0065004056
 H        -3.0335258924       -1.8608485764        4.0491322670
 H        -3.9162633196        1.2835787680        0.5900312164
 H        -3.7915327978        0.0212930966       -0.5559375834
 H        -1.3372375329        4.7773344372       -2.2723157351
 H        -3.0334098512        4.4959364133       -1.6470191837
 H         0.1793888449        1.0732407573       -1.7633608529
 H        -0.5058693907        2.5086246148       -2.8446351914
 H        -1.1535674004        0.7827595140       -2.9506059606
 H        -3.2463568350        0.9307903489       -2.6147535312
 H        -4.0137309574        2.2938680956       -1.8852390335
 H        -2.8567365048        2.5543503161       -3.1081199177
 H        -0.8642596049        5.6228876807        0.2535156258
 H        -1.9098927074        6.7712440449       -0.6082110099
 H        -3.4193145894        4.8798877172        4.4354286200
 H        -2.8255564069        3.6874930752        3.2707301530
 H        -1.4192086637        7.8876096048        1.3271846464
 H        -2.1646285811        8.2918233608        2.8715908733
 H        -3.2310792153        8.4314815765        1.5668112086
 H        -4.8771104947        6.9783204846        1.9401878942
 H        -4.6790690464        5.2693610883        2.6448775194
 H        -4.3472457310        6.7076301258        3.6772155102
 H        -2.2396408009        3.4057706281        5.9463930517
 H        -1.0185056554        4.4974785567        5.5522243254
 H         1.6629117982        3.9331614746        4.1556022768
 H         2.3295146985        3.8747643338        5.6943896833
 H         0.6363029759        3.2553716560        7.1119097231
 H         0.7854175373        1.6451799001        7.3795772047
 H        -0.8707029884        2.0282724155        7.2882895404
 H         0.0561044744       -0.2451384557        5.8448374963
 H        -1.4269585388        0.5641589980        5.2819600170
 H        -0.0293525518        0.1825678998        4.0936776545
 H         4.1640890534        4.3215646766        4.2728596362
 H         4.3109957567        2.5566769022        4.3878536268
 H         5.4607210088        1.8291998074       -1.1826239808
 H         5.6003739669        0.4505026600       -0.2307674421
 H         5.2410256480        4.5975669186        1.1246744506
 H         4.2084482437        3.9961692706       -0.1084169303
 H         5.7964363911        3.3371030876       -0.0858381410
 H         6.4275966204        1.4162782459        1.5501766948
 H         6.0948380598        2.3380713205        3.0210151172
 H         5.1874616757        0.9052708905        2.7173506724
 H         3.7551993989        0.8247819152       -2.6535930501
 H         3.1394501086       -0.1588260121       -1.2992364824
 H         5.8509430062       -0.4266996124       -5.8902090527
 H         5.9749510999       -2.1925078374       -5.5207787740
 H         6.2209672690       -2.8361570249       -3.4829861839
 H         4.9468389798       -3.7885237595       -4.3340208965
 H         4.9875345562       -3.8694322349       -2.6663228139
 H         1.8483200208       -1.5885372876       -3.3885857589
 H         2.5325295278       -3.2335099556       -3.5989783477
 H         2.6515421959       -2.6017432229       -2.0089991360
 H         4.0037984794       -2.7326300406       -7.0398773348
 H         3.8539675539       -1.0448431484       -7.4722678457
 H         7.9085389889       -3.0377257991       -9.7642046568
 H         7.9374156980       -4.8548190531       -9.7566945514
 H         7.6592126210       -3.9412553488      -11.1051284298
 H         3.3952869280       -1.5764136953       -9.5768862017
 H         3.5030911863       -3.1272451175       -8.8276845620
 H         3.5496334311       -3.0078778837      -10.5665983787
 H         6.3621610510       -1.8281348924      -11.5396275489
 H         5.2491100634       -0.6812351953      -10.6853962841
 H         6.8187305885       -0.9713687996       -9.8716241185
 Na        0.8145616991        1.7441366352        1.3193151851
