155

 C         5.6460766402        0.7985408963       -2.4847725190
 C         4.6185590043        1.2870873346       -1.4535623841
 C         4.8735302530        2.6746639211       -0.8235508180
 C         5.0182647270        2.4536386941        0.7083425284
 C         6.3444141310        2.8935356961        1.3505461006
 C         6.1358485840        3.4103410657       -1.3222536732
 C         3.5909821842        3.6544644521       -1.0645359198
 O         3.6090498816        0.7301491655       -1.1075509868
 O         4.1475442631        2.0318191619        1.4093958516
 C         6.1614924707        2.9080019421        2.9326301072
 C         6.5350127273        1.5119394911        3.4911680740
 C         6.3012944456        1.2177015041        4.9266420478
 C         4.6703452001        0.7235160886        4.9892121501
 C         4.4064324465       -0.7828353122        4.9877084490
 O         7.1879821809        0.7532079298        2.8164256774
 O         3.8266376382        1.5816860152        5.1391280539
 C         7.3317222905        0.2041376122        5.3968380224
 C         6.4878194555        2.4162605196        5.8792621261
 C         2.9358712236       -1.1766703526        4.7935856650
 C         2.3241417218       -0.5397607513        3.5901771282
 C         0.7566130563       -0.2634395132        3.3568995938
 C         0.5286400715       -1.0835151312        1.9936854657
 C        -0.3155584246       -2.3818744735        2.0615432461
 C        -0.1317663444       -0.8631717014        4.5494681406
 C         0.6460576124        1.2581257870        3.1049409762
 O         3.0014261060       -0.1427775541        2.6324119085
 O         0.7943722287       -0.5448862387        0.9059725107
 C        -0.3545625681       -3.0900032373        0.7285439640
 C         0.9690955843       -3.8721641762        0.3444980713
 C         1.6880490313       -3.8060494157       -1.1310884445
 C         0.5872321563       -4.3939960395       -2.1287755524
 C         1.0587827551       -5.1195572024       -3.3838412009
 O         1.6089174198       -4.4493695719        1.2061349386
 O        -0.5386889682       -4.3712579495       -1.6951911701
 C         2.3218450149       -2.4120717838       -1.3332030858
 C         2.9558935498       -4.7576218323       -1.0018086403
 C        -0.0354264659       -5.2238566708       -4.4650130595
 C        -0.3388740193       -3.8546370029       -5.1095549468
 C        -1.5155029131       -3.7569506454       -6.3125033346
 C        -2.8615388739       -4.1089616133       -5.5694629054
 C        -3.5625816989       -3.0551575174       -4.7832458789
 C        -1.4413756746       -2.2679051951       -6.8684479911
 C        -1.1689903844       -4.6631403261       -7.4988353531
 O         0.1667876310       -2.8268746734       -4.6834720081
 O        -3.4404551767       -5.1366475677       -5.8622639944
 C        -4.0495858473       -3.6036385490       -3.4453216640
 C        -4.4901057231       -2.4369288486       -2.4517191280
 C        -5.0009708282       -2.9330091575       -1.0111602115
 C        -5.3561355121       -1.6707550647       -0.0648077117
 C        -6.0679621576       -0.4051271368       -0.6343674945
 O        -4.2035063120       -1.2918799866       -2.6856392899
 O        -4.9445444769       -1.5773331496        1.0753255846
 C        -6.2927879851       -3.6547107939       -1.3318911417
 C        -4.0164443124       -3.8960465832       -0.2986004548
 C        -6.1085479085        0.6536287366        0.4123710959
 C        -6.7942063677        1.9960605191        0.0807224193
 C        -7.4151435585        3.1129106642        1.0906900553
 C        -6.1116419504        3.9334247151        1.5518331172
 C        -5.4964298242        4.9617191758        0.4844714813
 C        -8.3682361395        4.0630160139        0.2761117352
 C        -8.1452278349        2.3480327780        2.2392565875
 O        -6.9699349916        2.1595888544       -1.1193404044
 O        -5.5567552819        3.7524189238        2.6353051901
 C        -3.9136499973        5.0863853027        0.5355035051
 C        -3.0981470418        3.8753395511        0.1848452918
 C        -1.4913237935        4.1337264873       -0.0368201244
 C        -0.5299903295        2.8358412743       -0.0716694075
 C        -1.1650271262        1.5708580267       -0.6336413995
 O        -3.5785811338        2.7924270775        0.0782577941
 O         0.6359292040        3.0314115699        0.1606574149
 C        -1.2995043810        4.7840802187       -1.3943443530
 C        -1.0501405074        5.2487613164        1.0699548666
 H         5.4025732330       -0.1139730270       -3.0686666054
 H         5.9743438152        1.6576582055       -3.1129833630
 H         6.5876058365        0.4757458226       -1.8438011972
 H         7.1748589649        2.2011791996        1.0599442085
 H         6.5248441481        3.8515873543        0.9345737858
 H         6.9971893930        2.7398061013       -1.1751961754
 H         6.3396509136        4.3519204778       -0.8233973976
 H         5.9719377310        3.5729018887       -2.3981232594
 H         2.7180135484        3.1338760156       -0.7965764820
 H         3.5785400206        4.5368438488       -0.4996792315
 H         3.5173908205        3.9472350485       -2.0916033410
 H         6.8982338270        3.5478559035        3.3984338164
 H         5.1967541925        3.2771915466        3.2896854195
 H         5.0263250650       -1.4278860924        4.2878791130
 H         4.6515170895       -1.0482112268        6.0281626758
 H         7.4147372758        0.0133496052        6.4488688491
 H         8.2600616607        0.6054255433        5.0439671080
 H         7.2675818102       -0.7766194254        4.9402751990
 H         5.9746577272        3.4180946938        5.6209507571
 H         6.3060932116        2.1035859858        6.9174857009
 H         7.5624562512        2.8000694639        5.8349849989
 H         2.4214778910       -0.7434026688        5.6624606072
 H         2.8041047390       -2.2461501028        4.7976366439
 H         0.1312494970       -3.0359527037        2.7976538749
 H        -1.2658029961       -2.0538157938        2.4309567639
 H        -1.0406602997       -1.4671422151        4.2398852016
 H        -0.2450556961       -0.1791684403        5.3428320569
 H         0.3707687383       -1.6642607950        5.0895197418
 H         0.3580350157        1.5420010592        4.0957221752
 H         1.5550175607        1.7792865211        2.7757834531
 H        -0.1275284966        1.4554109649        2.2713985679
 H        -1.1575878914       -3.9576351693        0.7777313440
 H        -0.6305889730       -2.4510583696       -0.1241157798
 H         1.9675219356       -4.7165137764       -3.8500191321
 H         1.0268249114       -6.1550924352       -2.9444481245
 H         1.5037312931       -1.6065525953       -1.3596147780
 H         2.9301696255       -2.4095833740       -2.2880272154
 H         2.9833328038       -2.0038665204       -0.5245959638
 H         3.6223446638       -4.7055987950       -1.8938414308
 H         3.4148170955       -4.4177396742       -0.1334443368
 H         2.6722941333       -5.7720164142       -0.9744138414
 H        -0.9651713301       -5.5899771714       -3.9524157037
 H         0.1531267128       -6.0057457241       -5.1244996562
 H        -2.8856903887       -2.2520902148       -4.5391201847
 H        -4.3385100922       -2.6933707833       -5.3704179860
 H        -1.5480581020       -1.6384791963       -6.0202794231
 H        -2.1547083107       -2.1715962377       -7.7922736835
 H        -0.4634106962       -2.0081587106       -7.1335680451
 H        -2.0091365294       -4.5813069406       -8.2027941961
 H        -0.3433512047       -4.3258168807       -8.0126433975
 H        -1.1221602468       -5.6620266920       -7.1033952415
 H        -4.8895607369       -4.2614812127       -3.7224925379
 H        -3.2555905958       -4.1075408603       -2.9067999089
 H        -5.4384635315       -0.0552921743       -1.4658893383
 H        -7.0642153834       -0.6816967650       -1.0872161952
 H        -6.9719094724       -3.0312492705       -1.8449311188
 H        -6.7630956041       -4.1255616620       -0.4724725048
 H        -6.1575302867       -4.4289409939       -2.0033265735
 H        -3.0911279286       -3.3076803511       -0.1441975322
 H        -4.5248011329       -4.3083032882        0.5401104325
 H        -3.6528849868       -4.7611080843       -0.8731283716
 H        -5.1496645868        0.8555682330        0.7538918092
 H        -6.5459961576        0.1478899473        1.3029539278
 H        -5.6347529535        4.2881163691       -0.3974079494
 H        -6.0877074631        5.8763602050        0.2998663304
 H        -9.2657628448        3.5133626993       -0.1607149803
 H        -7.8447171978        4.3741921838       -0.5996275240
 H        -8.7052571529        4.8151390780        1.0024388773
 H        -8.5249598896        3.0945397674        2.9802721091
 H        -9.0012266875        1.7695503060        1.8486407943
 H        -7.4971110591        1.6404553547        2.7530801087
 H        -3.5548651426        5.9113729947       -0.1087834669
 H        -3.6780791105        5.3476587051        1.6166983248
 H        -0.5713464501        0.8177168019       -1.0683011826
 H        -1.7864608672        1.1114715295        0.1209585786
 H        -1.9270887865        1.8287887086       -1.4050778262
 H        -1.6573852378        5.8304412054       -1.4233489318
 H        -1.6822854443        4.2847885076       -2.2572410077
 H        -0.2678102544        4.8883394662       -1.6008792714
 H        -1.3346356554        6.2173663156        0.7680208953
 H        -1.3876637340        5.0866478376        2.0772732674
 H         0.0641627481        5.4073950302        1.0768979866
 Na        2.2559434431        1.2888650391        0.5537825100
