155

 C         5.6471414804        1.0620945406       -2.7370283949
 C         4.7929239732        1.5569786082       -1.5703939843
 C         5.1353023492        2.9947819868       -0.8694564848
 C         5.0103949920        2.7553511720        0.6502417378
 C         6.2525955628        2.9132142787        1.4919560103
 C         6.5137237820        3.5873163401       -1.4024794661
 C         3.9425404665        3.8598208323       -1.2654570484
 O         3.7065583864        1.0605665625       -1.3391837622
 O         3.9429162894        2.5919305951        1.1850894329
 C         6.0486590810        2.7683003267        3.0702487078
 C         6.5698857067        1.5048120462        3.6789058412
 C         6.0914986959        1.2340676500        5.3094445130
 C         4.6650877618        0.7427186826        5.0382560628
 C         4.3838817326       -0.7446869248        4.6862822959
 O         7.0911450390        0.5817808208        3.0841608644
 O         3.7958986977        1.5251770977        4.7353805878
 C         7.0092121908        0.1591959628        5.9834612715
 C         6.0611694840        2.5197983012        6.1947580447
 C         2.8779950886       -0.9312864799        4.5991180238
 C         2.2430116113       -0.3012098906        3.3908177812
 C         0.7319049729       -0.4935508316        3.1854100398
 C         0.4381720813       -1.2956747917        1.9067117756
 C        -0.4530001767       -2.5582511427        1.9012301241
 C         0.1284215182       -1.2221665809        4.4666380097
 C         0.1935328339        0.9641786550        2.9472864849
 O         2.9055805064        0.1894126798        2.4295695107
 O         0.8685033281       -0.7997436042        0.8414164850
 C        -0.3933818227       -3.3016137392        0.5625101131
 C         1.0434922966       -3.8126701579        0.2653272067
 C         1.6744839110       -3.8844625945       -1.1538904611
 C         0.5076977983       -4.5112653291       -2.1335539504
 C         1.1831120080       -5.2608588726       -3.3861544886
 O         1.7057487986       -4.2266804637        1.2107316754
 O        -0.6051348956       -4.2037419181       -2.0718711071
 C         1.9776561443       -2.4869443385       -1.7560692235
 C         2.9642731551       -4.7609092687       -1.0593483631
 C         0.2112232914       -5.2422502852       -4.5759179822
 C        -0.1716462105       -3.8339002715       -4.9940671491
 C        -1.2529562431       -3.7643251586       -6.1441544996
 C        -2.6251188545       -3.9810251775       -5.4905233254
 C        -3.1808837276       -2.9519635105       -4.4753497344
 C        -1.1418893622       -2.4115999110       -6.9169164114
 C        -0.9266190636       -4.9161775286       -7.2107114984
 O         0.4070062438       -2.8086891485       -4.6199147694
 O        -3.2290056985       -5.0093069951       -5.6567572988
 C        -3.7113875726       -3.6009247065       -3.1425408229
 C        -4.1381916742       -2.5427871096       -2.0576637432
 C        -5.1608021274       -2.9500773487       -1.0454220396
 C        -5.3766006261       -1.7042865317       -0.0600506835
 C        -6.3479839947       -0.5149447466       -0.4256277986
 O        -3.7844027089       -1.3747800318       -2.1252050317
 O        -4.7544328783       -1.6789866015        0.9904940340
 C        -6.5097596336       -3.1805537873       -1.7852631730
 C        -4.7356703824       -4.3176621114       -0.3412748489
 C        -6.3429757856        0.6082803840        0.5215898231
 C        -6.9414539699        1.8723915862       -0.0843788382
 C        -7.3925421320        3.0112650872        0.8911438425
 C        -6.1220207355        3.7207502915        1.4932525411
 C        -5.3508240324        4.7427056646        0.5934877949
 C        -8.2923080429        4.0438725922        0.2125863851
 C        -8.2394693024        2.3337241303        1.9815404431
 O        -7.0908087243        1.9899455425       -1.2737304979
 O        -5.7460587306        3.4663745650        2.5983903298
 C        -3.9371722004        4.8501762827        1.1552331115
 C        -3.0428130694        3.8360520616        0.5389200210
 C        -1.5065280119        4.3071398579        0.2470868157
 C        -0.5188583982        2.9389406024       -0.0123360038
 C        -1.1353011326        1.8861693227       -0.9036799473
 O        -3.5069122934        2.8351666904        0.0857548785
 O         0.5800540287        2.8731873128        0.4902167067
 C        -1.6934158775        5.0050398564       -1.1782167098
 C        -0.8458551550        5.3927680631        1.1209590672
 H         5.4777863869       -0.0393711205       -2.8775026537
 H         5.3362913932        1.4434172804       -3.7432758933
 H         6.7602141816        1.0748366948       -2.5276422806
 H         7.0006518385        2.3007191149        0.9149380633
 H         6.6387868563        3.8943628832        1.2503426167
 H         7.2979214264        2.9819918789       -0.9684039321
 H         6.5948977798        4.6154013618       -1.1364614997
 H         6.5399764252        3.5028957903       -2.5079610022
 H         2.9626700394        3.6378421892       -0.7906177398
 H         4.1642605188        4.7908559362       -0.8515542133
 H         3.8584817941        3.9327150940       -2.2922822304
 H         6.3550728045        3.7293412727        3.5370700078
 H         4.9860869459        2.7366460092        3.4006804060
 H         4.8242158017       -0.7517478373        3.6359559954
 H         4.8298746355       -1.5731857917        5.2132890414
 H         6.4291322965       -0.2842631645        6.7776980508
 H         7.9042840170        0.6041106076        6.4844087417
 H         7.3759966341       -0.6490817325        5.3666340386
 H         5.1016776022        2.9861832519        6.1097948733
 H         6.1603948552        2.1287129153        7.1633447660
 H         6.7633424277        3.3282237951        6.0342664982
 H         2.5533666299       -0.4035247848        5.5269796082
 H         2.6343582593       -1.9927183152        4.6933355429
 H         0.0336643733       -3.1930148066        2.6866758069
 H        -1.4661250179       -2.4133295780        2.2755952581
 H        -0.9169959903       -1.2336146897        4.5394828370
 H         0.4577321402       -0.7479279114        5.4306314329
 H         0.4524083391       -2.2876204938        4.3186244398
 H         0.6761659953        1.4970893715        3.7362003672
 H         0.3148675441        1.2658374012        1.9625496628
 H        -0.9013697968        1.0776331240        3.1664979242
 H        -1.0739151512       -4.2451100921        0.6813714116
 H        -0.8411871312       -2.7556746773       -0.2839918239
 H         1.9835805762       -4.6407408954       -3.6806853228
 H         1.3109627453       -6.2576937271       -2.9992168040
 H         1.0891019001       -2.0033805537       -2.1448272022
 H         2.5257436784       -2.5364592616       -2.7272328266
 H         2.5811203760       -1.8270416574       -1.1689450200
 H         3.3990286654       -4.9740993463       -2.0052563251
 H         3.6193839980       -4.2335588764       -0.3687406847
 H         2.7324166321       -5.6820956232       -0.6671398018
 H        -0.6981430218       -5.7814994815       -4.1909065097
 H         0.4849209229       -5.8146113258       -5.4112842283
 H        -2.4386882985       -2.2124038175       -4.2496457697
 H        -4.0216230606       -2.5167839379       -4.9458065337
 H        -0.7357967996       -1.7288591128       -6.0893798677
 H        -2.0624301711       -2.1010135930       -7.4786456331
 H        -0.3493471871       -2.5056716140       -7.6988846255
 H        -1.4606581740       -4.6674799318       -8.1685176449
 H         0.1177233598       -4.8792302846       -7.3842051342
 H        -1.3570564177       -5.8740912131       -6.9095421093
 H        -4.6304388178       -4.1244908008       -3.4861194555
 H        -2.9677336791       -4.3170172924       -2.7272659629
 H        -5.9433402819       -0.0868515940       -1.3861216981
 H        -7.3832591249       -0.7781673991       -0.6577946583
 H        -6.8694278041       -2.3810490606       -2.3313819446
 H        -7.2982818796       -3.2972774515       -1.1314896047
 H        -6.4817470185       -4.0937934648       -2.4815494596
 H        -3.7290962172       -4.3724763773        0.0569342502
 H        -5.5200811464       -4.5900863079        0.3506350634
 H        -4.6581735465       -5.0942263632       -1.0601395849
 H        -5.3704402860        0.9176298166        0.7633063189
 H        -6.8370553248        0.2339412962        1.4245810405
 H        -5.3918930359        4.4409703663       -0.4575040875
 H        -5.8668026894        5.7252321167        0.5586318042
 H        -9.3254635890        3.6715747689       -0.0576074379
 H        -7.8897299257        4.2891755172       -0.7784050841
 H        -8.6070706215        4.7903877249        0.9463912955
 H        -8.6566626225        3.0153689849        2.6939357415
 H        -8.9697596362        1.6479075356        1.5113909580
 H        -7.5933555472        1.7639858796        2.5872841275
 H        -3.6044158303        5.8559640704        0.9486749724
 H        -3.8943119133        4.7105931357        2.2283524079
 H        -0.3341496806        1.2636364333       -1.2368428321
 H        -1.8536269443        1.2018178115       -0.4015335935
 H        -1.7802763247        2.1854546836       -1.7903561289
 H        -2.5511446655        5.7377138067       -1.1014970463
 H        -1.9359201263        4.3228506498       -1.9880750683
 H        -0.8417149413        5.5371229796       -1.6408964282
 H        -1.5383314729        6.1722892991        1.4667378100
 H        -0.5031183114        4.8286174376        2.0157210592
 H         0.0591800037        5.9833931827        0.7287700454
 Na        2.1868313593        1.1129096549        0.4211541775
