155

 C         5.3900845220        1.1554022699       -2.1233843912
 C         4.5495643167        1.9935338389       -1.2186319358
 C         5.0473312189        3.4392088676       -0.6630311470
 C         4.7586608835        3.5425949561        0.9109486804
 C         5.7400185742        3.1552262912        2.0109962456
 C         6.6056350949        3.6463070403       -0.8750353928
 C         4.1456418954        4.4467977126       -1.4643360279
 O         3.3810466443        1.6800730016       -1.0120219712
 O         3.6006428769        3.9075520135        1.1030432659
 C         4.9439362996        2.6524134376        3.1808510320
 C         5.5303692848        1.3882653541        4.0148583384
 C         4.8113370355        0.9601748054        5.2923711423
 C         3.6236015737        0.1643061222        4.8365363947
 C         3.8758616458       -1.2109293238        4.1653708378
 O         6.3144694199        0.6644626718        3.4743873498
 O         2.4392115830        0.4670631002        4.9919114265
 C         5.7932683913        0.0828194071        6.2123068490
 C         4.4051345845        2.1588765551        6.2188096000
 C         2.5598225920       -1.6205045438        3.4580430748
 C         1.8066725810       -0.3789861999        2.7346569646
 C         0.2073427073       -0.4926801855        2.6912135821
 C        -0.0513498250       -0.5878337505        1.1119614392
 C        -0.4349177056       -1.9359533969        0.5045487450
 C        -0.3847344222       -1.7145469451        3.4181255003
 C        -0.2752152377        0.8550333231        3.2334889307
 O         2.3892715533        0.5217256122        2.1691459579
 O         0.2711848487        0.3394038155        0.4184570050
 C         0.5803591486       -2.2524455393       -0.6230797248
 C         1.7202017783       -3.1782938366       -0.2768895286
 C         2.4884945804       -3.9756037172       -1.4332722950
 C         1.5863839371       -4.9370539890       -2.3033658136
 C         2.1360010484       -5.6853568954       -3.6000031654
 O         2.2133683804       -3.1182560814        0.7919855304
 O         0.4969817794       -5.3728215891       -1.8652139440
 C         3.0870358347       -2.7498599677       -2.2393119012
 C         3.5493711319       -4.8431046786       -0.7964232558
 C         1.0467700716       -5.8279381443       -4.7362449137
 C         0.8309494751       -4.4234062004       -5.4366298353
 C        -0.6672011549       -4.2131283473       -6.1564084795
 C        -1.6951829011       -4.4388634591       -5.0475071673
 C        -2.2427154988       -3.2770120245       -4.1949744888
 C        -0.6091379668       -2.7945579354       -6.8126074036
 C        -0.7581144030       -5.3469206455       -7.2247017469
 O         1.6671036514       -3.5742591668       -5.3670555464
 O        -1.9352624619       -5.5955935954       -4.6740595277
 C        -3.2225496204       -3.8354103419       -3.1266721851
 C        -3.5790720745       -2.7460821429       -2.0468217552
 C        -5.1022785763       -3.0156737195       -1.5745005521
 C        -5.3692405295       -2.1316120721       -0.3598073050
 C        -5.1824811584       -0.5986845494       -0.6000103706
 O        -2.8305892793       -1.8335807416       -1.8353666322
 O        -5.8092469794       -2.5489164769        0.7072829064
 C        -5.9913701809       -2.5341737540       -2.7924107547
 C        -5.2411547171       -4.4998621508       -1.0756571460
 C        -5.9970761392        0.0754687398        0.5949982016
 C        -6.5447879454        1.4105035377        0.2039075886
 C        -7.2522897658        2.3916002989        1.3213923085
 C        -6.1563776540        3.4174032895        1.8598867516
 C        -5.7984543094        4.6868403805        1.1017615422
 C        -8.4165633906        3.1283193910        0.6818466595
 C        -7.7646529996        1.5067176318        2.5432058292
 O        -6.5760442703        1.8140684852       -0.9183775947
 O        -5.6526862301        3.2115780056        2.9520793046
 C        -4.4096136534        5.1034018634        1.5427312708
 C        -3.3512150701        4.2636842642        0.7525593200
 C        -1.9347645091        4.8827091540        0.5857832747
 C        -0.8977617652        3.7601888385        0.3360715247
 C        -1.0615744880        2.9066704966       -0.9623192419
 O        -3.5974186786        3.1836558525        0.3515087968
 O         0.0040155521        3.4722822912        1.1152031444
 C        -1.9313691088        5.9587916366       -0.6274559225
 C        -1.4993066228        5.6475041263        1.8697397091
 H         4.7750120044        0.3570356066       -2.4419696748
 H         5.7690992071        1.6854886485       -3.0179799085
 H         6.1865274586        0.6530676722       -1.5991199219
 H         6.4419919282        2.4133858292        1.7067584613
 H         6.2293537107        4.0516825984        2.5077438084
 H         7.2569425762        3.1182437667       -0.1915732480
 H         6.8875852728        4.6365130997       -0.6214263212
 H         7.0176115485        3.3937029478       -1.8935114827
 H         3.1247046805        4.4600615945       -1.2165118568
 H         4.5285238936        5.4610950131       -1.4274465146
 H         4.0746020743        4.2258769763       -2.5594951972
 H         4.6319272995        3.4575998380        3.7923432770
 H         4.0236065360        2.0727880202        2.8864753742
 H         4.7622946689       -1.1582843045        3.5364646388
 H         4.0153503231       -1.9293070382        4.9209715514
 H         5.2147594093       -0.2768084476        7.0122069199
 H         6.5515454578        0.8151864222        6.6399102346
 H         6.3106557087       -0.6912806120        5.6929763912
 H         3.5263376496        2.5859976860        5.7268905099
 H         4.0663417271        1.8005474523        7.2681557647
 H         5.3254845633        2.7882969037        6.3992577902
 H         2.1306765008       -2.2523848464        4.2354022033
 H         2.7427312202       -2.3678949527        2.6348081899
 H        -0.4008082562       -2.7176433087        1.2954795028
 H        -1.4499034564       -1.8713244500        0.0498691182
 H        -1.5230803781       -1.6563922832        3.2914752952
 H        -0.0725534783       -1.6911670137        4.4712866480
 H        -0.1085624604       -2.6706992795        3.1767622621
 H        -1.1365251646        1.1934091215        2.5501784644
 H        -0.6068976425        0.8347109219        4.2809750470
 H         0.3597801228        1.7206160925        3.1060495314
 H         0.1028381317       -2.7633696961       -1.4371445260
 H         1.0418608027       -1.3059698467       -1.0533924889
 H         2.9717454799       -5.1731739920       -4.0004972440
 H         2.3850222365       -6.7236407474       -3.3020986670
 H         2.2370211062       -2.1333127917       -2.6031218572
 H         3.6715009891       -3.1353730507       -3.1347383681
 H         3.7162865855       -2.0828114990       -1.6235439412
 H         4.2774029777       -5.1058338140       -1.6304945386
 H         4.1490385342       -4.1982015439       -0.1769685385
 H         3.1712309069       -5.7221134512       -0.1626261253
 H        -0.0027132950       -6.0502095930       -4.3121330228
 H         1.3374696421       -6.5517005152       -5.5206890976
 H        -1.3068011841       -2.7615975124       -3.8292517164
 H        -2.8334060727       -2.5976312664       -4.7947282056
 H        -0.7106210403       -2.0359524210       -6.1079295145
 H        -1.4538181606       -2.5268975309       -7.4534581059
 H         0.2557681850       -2.6536400221       -7.3803318551
 H        -1.6055985164       -5.3458269196       -7.8837939277
 H         0.0881643222       -5.4701653126       -7.9241034110
 H        -0.6950954693       -6.3200793360       -6.7917949623
 H        -4.1459461246       -4.1626591776       -3.6754585800
 H        -2.8060933774       -4.7027652383       -2.6961336623
 H        -4.1360358173       -0.3829265480       -0.6158800339
 H        -5.6074954161       -0.2402577797       -1.6134492340
 H        -5.5256353456       -1.5334751152       -3.0724639266
 H        -7.1348343645       -2.4412878731       -2.5386032704
 H        -5.8936886314       -3.1661730245       -3.6501038931
 H        -4.8224874218       -4.4944651573       -0.1194896810
 H        -6.2828983034       -4.8023230249       -0.9372661562
 H        -4.8166173051       -5.1204075376       -1.7902716755
 H        -5.3744896019        0.2983777604        1.4785425585
 H        -6.9075257833       -0.5412434244        0.9567205207
 H        -5.9714185337        4.5699707689       -0.0017924333
 H        -6.5892073074        5.3720681989        1.2772210039
 H        -9.2956022938        2.5729884107        1.0299972002
 H        -8.5016743574        2.9807665867       -0.4296599470
 H        -8.6004043979        4.1817620038        0.8843674631
 H        -8.4704193310        2.0030123781        3.2182023561
 H        -8.3567396256        0.6243710936        2.2139188631
 H        -6.8968119407        1.2864444782        3.0866478846
 H        -4.2954522306        6.2086935055        1.5233382020
 H        -4.2813413118        4.8334908800        2.6708804061
 H        -0.4330044646        1.9710533443       -0.8587343530
 H        -2.0853085931        2.6343848582       -1.1028310796
 H        -0.7454365402        3.4522514178       -1.7910792368
 H        -2.8230664182        6.5618196837       -0.5467378496
 H        -1.9968310070        5.5195835126       -1.6153575512
 H        -1.1085168798        6.7131589762       -0.5957760873
 H        -2.2700566141        6.4743966065        1.9175416928
 H        -1.6812729366        4.9436521915        2.7072578580
 H        -0.4836585378        6.0078048012        1.7954683454
 Na        2.0330235803        2.2932775391        0.8361979229
