155

 C        -9.1512001974       -5.2153524027        3.1186256754
 C        -8.9590511836       -5.5552142402        1.6692762286
 C        -8.1861323512       -6.8626132531        1.3345581934
 C        -6.6618728863       -6.5277912539        1.7937474869
 C        -5.7938477103       -5.8253061676        0.7693331129
 C        -8.7314891520       -8.0025804380        2.1753714551
 C        -8.2829518393       -7.3230536129       -0.1183579541
 O        -9.3641398103       -4.7715408110        0.8480089894
 O        -6.2554913999       -6.6316130075        2.9979400703
 C        -5.6332160573       -4.2719730669        1.1031094153
 C        -4.2747299451       -3.7536562565        1.7146137130
 C        -4.2780178135       -2.4734710747        2.6164206850
 C        -4.5337598920       -1.2841650950        1.5884530564
 C        -3.3012807886       -0.4211166113        1.2641086019
 O        -3.2353683247       -4.3131542104        1.4029833178
 O        -5.5989655268       -1.1546947855        1.0232362969
 C        -5.4857742464       -2.5788191071        3.6496384062
 C        -3.0268405633       -2.2796141704        3.3127151114
 C        -3.3287976207        0.3027958618       -0.0749861937
 C        -2.0162804793        1.1854493507       -0.2907274309
 C        -1.6670339271        2.1194102396       -1.4265605097
 C        -1.0901873965        3.4280293440       -0.8662649503
 C        -1.6984143155        4.7841544857       -1.3253037462
 C        -0.5430651686        1.3505992270       -2.2769822277
 C        -2.7598451494        2.4091302915       -2.4847076064
 O        -1.1519862995        0.9674281797        0.5338883408
 O        -0.1406012439        3.5273481632       -0.1113520771
 C        -1.7420279960        5.7220989754       -0.1089005781
 C        -2.5133696798        5.2867944964        1.1025012805
 C        -2.5607141331        6.3152432478        2.2504349000
 C        -1.7949595322        5.6659800946        3.4542377418
 C        -2.3727126804        4.3853107282        4.2224532674
 O        -3.2550105888        4.3383580301        1.0885919651
 O        -0.6721881837        6.0967096237        3.7062533716
 C        -2.0183687881        7.7354286400        1.9924532385
 C        -4.0832536232        6.4764567066        2.5647908150
 C        -1.3264249292        4.0055330783        5.2917145882
 C        -0.4019359679        2.8980659833        4.6412256573
 C         0.5386009438        1.8986480631        5.4290355060
 C         2.0073005732        1.9006686519        4.8318446121
 C         2.7622782410        3.2451387179        4.9729722877
 C         0.4891358020        2.2363471413        6.9507758511
 C         0.0626789606        0.4126722894        5.1966565692
 O        -0.4549676129        2.7553873129        3.4364145253
 O         2.5284563333        0.9700538753        4.3234587337
 C         3.9147101158        3.5093460719        4.0184599631
 C         3.4379166792        3.1642125094        2.5060242276
 C         4.3875862238        2.5863421959        1.4459042216
 C         3.6751656230        1.7740920589        0.3072863688
 C         4.5671782773        0.8388972343       -0.6343874366
 O         2.3224248392        3.5995599670        2.2359006728
 O         2.4671228857        1.7180115143        0.3169522784
 C         5.0335385231        3.8903349303        0.8230891004
 C         5.4393517477        1.5971680755        1.9549725710
 C         3.7155794679        0.0712382648       -1.7179418568
 C         4.5757591586       -1.1727142552       -2.1379837260
 C         3.9766901077       -1.9969271543       -3.3274070616
 C         3.8554020861       -1.1548771467       -4.6122220361
 C         4.9580308610       -1.1278021373       -5.6927947924
 C         4.9759634962       -3.2505443433       -3.5857323846
 C         2.5666499380       -2.5272447423       -2.8718370682
 O         5.6358694750       -1.4126919922       -1.5926837140
 O         2.8687265332       -0.4291466542       -4.8230952216
 C         4.4556211705       -1.8583287180       -7.0526585706
 C         5.5016150515       -1.9248203532       -8.2327129115
 C         4.8969256715       -2.5067419686       -9.5587012210
 C         5.2623961658       -4.0585042410       -9.4980358718
 C         6.7832136953       -4.3587549700       -9.5937737978
 O         6.6809134912       -1.7275340191       -8.0741920070
 O         4.4306973495       -4.8860647533       -9.5639912976
 C         3.3471995663       -2.3403472312       -9.6772935670
 C         5.7114905701       -1.7871054815      -10.7077591306
 H       -10.1927977463       -5.3765416062        3.3607780324
 H        -8.6289876096       -5.8317582701        3.8402137994
 H        -8.9874349291       -4.1777174419        3.2849515932
 H        -4.7321991855       -6.1552668636        0.8555760424
 H        -6.1560998540       -5.8511123711       -0.1914634487
 H        -9.7775750743       -8.2709445534        1.8021598939
 H        -8.6838027631       -7.7655270436        3.2077084081
 H        -8.0303340445       -8.8266759357        1.9523227797
 H        -9.2554656661       -7.3866425469       -0.5106325908
 H        -7.8791726389       -6.6651330098       -0.9269429823
 H        -7.9248760302       -8.3041085350       -0.3140685888
 H        -5.8957622689       -3.7376898939        0.2191512395
 H        -6.3544389708       -4.0802638030        1.8979007036
 H        -3.3432513233        0.2945633806        2.0541815589
 H        -2.4013120710       -0.9688443621        1.3580087498
 H        -5.1714396507       -2.1184807910        4.5889716826
 H        -5.6033230097       -3.6464969647        3.8708647059
 H        -6.3330190818       -2.0723157290        3.0654534280
 H        -3.0482904852       -2.8881566054        4.1972246784
 H        -2.1722562313       -2.4503813177        2.6769866648
 H        -2.8012820186       -1.3544235112        3.6791510086
 H        -4.2345354490        0.8299141597       -0.3672421813
 H        -3.2587987790       -0.3860486127       -0.8497857028
 H        -1.1698962054        5.3423626941       -2.1278003975
 H        -2.7524219915        4.5256527991       -1.6879980660
 H         0.4318210836        1.4406494491       -1.6700229154
 H        -0.4043683189        1.8964757299       -3.1671039746
 H        -1.0909561468        0.4042260136       -2.5246185121
 H        -3.0491070483        1.4824948558       -3.0385391286
 H        -3.5894143976        2.8545696583       -1.9924531996
 H        -2.4146023117        3.0569649867       -3.3167203129
 H        -0.7234805950        5.9395010960        0.2362163815
 H        -2.1652893219        6.6627543377       -0.4139568997
 H        -3.3134629009        4.6161796064        4.6751284986
 H        -2.4278201692        3.5889694074        3.5111336363
 H        -0.9307860368        7.7411686129        1.9883624200
 H        -2.3207833727        8.5135283312        2.6990654134
 H        -2.3430806644        7.9275226509        0.9828882172
 H        -4.4016258245        7.0973292320        1.7602657097
 H        -4.5922363952        5.4884857920        2.6138442865
 H        -4.1546058250        7.1515915386        3.4684727837
 H        -1.8632915324        3.5443466588        6.1412006757
 H        -0.9248247705        4.8437299492        5.7832558079
 H         2.0197155857        4.0016497289        4.7743415232
 H         3.0041964667        3.4569478611        6.0502937860
 H         0.3320460521        3.3205971381        6.9923938196
 H         1.4345216277        1.9586785634        7.4081465059
 H        -0.3450146893        1.7489995128        7.4093373236
 H         0.8673784217       -0.2465201024        5.3467965130
 H        -0.6368994668        0.2068021407        6.0265764027
 H        -0.1850139070        0.3310495873        4.1752037408
 H         4.0929500098        4.6032904191        4.0929942854
 H         4.7578594627        2.9484667585        4.2944668500
 H         5.3013618565        1.5121806460       -1.2034211549
 H         5.3110868007        0.0855494524       -0.1570685508
 H         5.6394972215        4.5023374208        1.4758163864
 H         4.1558147928        4.5296464749        0.4651136606
 H         5.5383065614        3.5631401346       -0.1532206491
 H         6.3019288314        1.5929295779        1.3179786635
 H         5.9052079541        1.9109952821        2.9251551680
 H         5.0773845305        0.6560206303        2.0367436804
 H         3.6354198470        0.7831483823       -2.5338770699
 H         2.7923556536       -0.1660102617       -1.2370818704
 H         5.2378267027       -0.1232267429       -5.9399274091
 H         5.8028192110       -1.7158646532       -5.2956526216
 H         5.9091843695       -2.9291316753       -3.9702467531
 H         4.6834753303       -3.9821609794       -4.3993971602
 H         5.2440873978       -3.8032973751       -2.6918006985
 H         2.0879149909       -1.8062032082       -2.2266973989
 H         1.9984905732       -2.9668717391       -3.7145652385
 H         2.7502974344       -3.3069804984       -2.2579008209
 H         4.2542059105       -2.9043477009       -6.7307501723
 H         3.5073975257       -1.4132075246       -7.3650900050
 H         7.3837452270       -3.8690558114       -8.7858464710
 H         6.9072715932       -5.4380607020       -9.4858164389
 H         7.3294606456       -4.0877047069      -10.4774385053
 H         3.0608117252       -1.2962863033       -9.4704252855
 H         2.8295751519       -2.8680767109       -8.8542628784
 H         3.0579286478       -2.7357766601      -10.6434554974
 H         5.4307956723       -2.0542365315      -11.7053935862
 H         5.5575351990       -0.8576656667      -10.3489056523
 H         6.7542323067       -2.1019806096      -10.5883064182
 Na        0.5403778596        2.1163945838        1.5797927770
