155

 C         4.8543130660        2.3781178994       -0.9060751890
 C         4.0305189603        3.5117696561       -0.1825936412
 C         4.8126051004        4.4994896569        0.8230108510
 C         4.2049107035        3.9394844285        2.3015217902
 C         5.2079777682        3.8000283485        3.5157970644
 C         6.3681177877        4.4297348371        0.7976523294
 C         4.2982747474        5.9655428715        0.4324638324
 O         2.7756938418        3.4533121201       -0.4437426102
 O         3.0290714570        3.7767687752        2.4585992998
 C         4.5101486180        3.0026529115        4.5847840635
 C         4.3511173971        1.5930513995        4.0847628181
 C         4.2244527821        0.4158854747        5.1544880063
 C         2.7239947809       -0.0349781977        5.1101955233
 C         2.4141489948       -1.2532835563        4.0944615469
 O         4.4267962436        1.2712123641        2.9142186940
 O         1.8591972362        0.4535790432        5.8328770747
 C         5.2838001852       -0.6797369391        4.8424617334
 C         4.5717881121        0.8396791110        6.6346823656
 C         0.8743306308       -1.2899949337        3.9191266200
 C         0.5563390608       -0.1737412070        2.8480566907
 C        -0.7030818500       -0.2929827538        1.9986045400
 C        -0.1165078350       -0.5063075786        0.5175241735
 C        -0.2957587996       -1.9115323830       -0.1173265618
 C        -1.6854723810       -1.3827424326        2.4310132971
 C        -1.4033162103        1.0776765259        1.9729839805
 O         1.2859073860        0.7772814390        2.6366490583
 O         0.4078207784        0.4342395102       -0.0307047341
 C         0.6963065021       -2.1880804784       -1.2132569553
 C         2.0816605372       -2.5550708817       -0.6174057432
 C         3.0179951646       -3.6784247679       -1.1734105166
 C         2.2357438169       -4.4535201564       -2.2324683028
 C         2.5443781118       -4.0314585978       -3.7320031934
 O         2.4113390130       -2.0423560177        0.4720108344
 O         1.3108204133       -5.1849792574       -1.9580640218
 C         4.3820011113       -3.1158044365       -1.6147347166
 C         3.4432833624       -4.6455183303       -0.0849286862
 C         2.0155699769       -5.1252189007       -4.8106100729
 C         0.9259247028       -4.4517951181       -5.6571538193
 C        -0.0227004650       -5.3680349058       -6.5012331789
 C        -1.4089445531       -5.5659158577       -5.7163201582
 C        -1.9864071397       -4.3028100003       -5.1232093703
 C        -0.4960206761       -4.6201321537       -7.8196414188
 C         0.6469069919       -6.7299757368       -6.8401791653
 O         0.8093464140       -3.2404597644       -5.6630142338
 O        -1.9831146033       -6.6558699470       -5.7503513342
 C        -3.1587650730       -4.5964259154       -4.2062456708
 C        -3.1924943937       -3.5021156261       -3.0241617597
 C        -4.4436738466       -3.2668072568       -2.1359528768
 C        -4.3371326878       -2.0615327538       -1.1418478217
 C        -5.3904650172       -0.8352688836       -1.1795134150
 O        -2.1329638551       -2.9295389728       -2.8085492982
 O        -3.5030719246       -2.0854424075       -0.3235559650
 C        -5.6269313146       -3.2609032553       -3.0761495360
 C        -4.6064922573       -4.4878192072       -1.2679587020
 C        -5.1929868273        0.1794914950       -0.0748123375
 C        -6.5633419846        0.5335379163        0.7523292927
 C        -6.1426543128        1.4475158459        1.9948570418
 C        -5.2139871379        2.6581627185        1.5229410901
 C        -5.8408579946        3.7383115295        0.5877515095
 C        -7.3679698987        2.0242689284        2.8095431744
 C        -5.4615024704        0.5939350280        3.0365001148
 O        -7.5975918725        0.0144605731        0.4379016202
 O        -4.0571874315        2.7603858156        1.9398616892
 C        -4.7594135767        4.9421716735        0.6137275814
 C        -3.4211607199        4.6067045800       -0.0298019865
 C        -2.1962932492        5.1682246786        0.5799527405
 C        -0.8813303775        4.4562729229        0.2406735380
 C        -0.3443039660        4.3584549323       -1.1196324832
 O        -3.3859634757        3.9488411044       -1.0226207817
 O        -0.2423058132        3.9738197117        1.1784563036
 C        -1.9673276249        6.6569857538        0.0284509597
 C        -2.1819205288        5.3235880260        2.1811607388
 H         4.2197525182        1.5973793102       -1.2587084654
 H         5.3015278892        2.8425866799       -1.8091493149
 H         5.5472574867        2.0006138226       -0.2398388903
 H         6.1033895868        3.2954138927        3.1859314091
 H         5.4444719077        4.7809427823        3.9800214526
 H         6.6633041295        3.4907029852        1.1807834535
 H         6.7526652744        5.1658691403        1.4232123025
 H         6.6910543106        4.4964529632       -0.2469758829
 H         3.2250746114        5.9546313817        0.3677962175
 H         4.7050149891        6.6669523889        1.2605768770
 H         4.8409355128        6.1235194870       -0.5200865516
 H         5.0479041387        2.8284592841        5.5279666964
 H         3.5444469007        3.4940200869        4.8391291369
 H         2.8384483501       -1.1173022832        3.0972195693
 H         2.7907157831       -2.1982096821        4.5664375146
 H         5.1167687464       -1.5038981849        5.5554372288
 H         6.2537414279       -0.3751923534        4.9268683783
 H         5.1212122824       -1.1545069887        3.8739565690
 H         3.9841312742        1.6886599743        7.0722268753
 H         4.0858793130       -0.0009954908        7.1597027877
 H         5.6654914059        1.1019696867        6.7213561115
 H         0.3279360709       -1.0585374511        4.8099106764
 H         0.4937711437       -2.2213565283        3.5180573011
 H        -0.1298481624       -2.7258102920        0.6758225366
 H        -1.2087619821       -2.0678029026       -0.6113021214
 H        -2.6089431737       -1.1332518070        2.0001165205
 H        -1.7458797753       -1.2006829423        3.5664111860
 H        -1.2831685509       -2.3729244577        2.2635829257
 H        -2.3270406530        0.9953327536        1.4588960324
 H        -1.6288409397        1.4463507371        2.9808160008
 H        -0.7306196004        1.9089530772        1.5596976099
 H         0.2512956606       -2.8716000274       -1.8558562504
 H         0.8762279337       -1.2989671227       -1.7852998202
 H         2.2010372979       -2.9979824193       -3.7847750350
 H         3.6131791335       -4.0099380635       -3.7963760297
 H         4.4454835898       -2.5719378643       -2.5269404169
 H         5.0083712625       -3.9518927839       -1.7170763645
 H         4.7498946732       -2.6150325406       -0.7259429072
 H         4.3864558084       -5.1711782120       -0.2255158614
 H         3.4561509200       -4.0752798567        0.8978233046
 H         2.6894425092       -5.5234588941       -0.0050304751
 H         1.5832588904       -5.8349839908       -4.1619444381
 H         2.8745370387       -5.4792493470       -5.3176732715
 H        -1.2761080971       -3.6785740454       -4.6628599708
 H        -2.4207993744       -3.7379288404       -6.0336936477
 H        -0.3674928245       -3.5449004553       -7.6351554241
 H        -1.4857425226       -4.8949154048       -8.0151256141
 H         0.1891255397       -5.0168892781       -8.5700529345
 H        -0.1522548256       -7.3347152305       -7.2133654854
 H         1.5056764643       -6.5399613350       -7.4856612239
 H         0.8697859970       -7.2907727203       -5.8905892657
 H        -4.1107638678       -4.6883538360       -4.7406535138
 H        -2.9105116287       -5.6340349542       -3.7840347794
 H        -5.0575678719       -0.4686346786       -2.0656835510
 H        -6.4366893461       -1.2260083612       -1.1859257759
 H        -5.5826741427       -2.5156255475       -3.8675943695
 H        -6.5046302023       -2.9079571544       -2.5654220922
 H        -5.8267956652       -4.2065482845       -3.4442859430
 H        -3.9451042467       -4.4934099175       -0.4477385229
 H        -5.5092383684       -4.6207555767       -0.7334699230
 H        -4.3824662268       -5.3381141312       -1.8639804330
 H        -4.6663658812        1.0918346550       -0.2571606992
 H        -4.6537780974       -0.3326227246        0.7399796930
 H        -6.0985469474        3.3653386098       -0.4612139164
 H        -6.7906250648        4.1152289774        0.9220868485
 H        -7.9392893067        2.8481109583        2.4503676137
 H        -6.8565509232        2.3345613526        3.7825404700
 H        -8.0430963406        1.2399932755        3.1111417808
 H        -5.4174496435        1.0845287311        4.0182639226
 H        -5.8323775700       -0.4697395561        3.1176164274
 H        -4.4183590219        0.3649318676        2.8027972100
 H        -5.1706244575        5.7803625416        0.1993791025
 H        -4.6501666231        5.1622067571        1.6720485117
 H        -0.5729438896        3.4069331469       -1.4761769993
 H        -0.6083743507        5.0980671243       -1.9016716578
 H         0.7325527394        4.3758922880       -1.0450759081
 H        -2.3200465888        7.3481427559        0.7918442519
 H        -2.5037337111        6.8510887722       -0.9297597896
 H        -0.8561348367        6.8339254434       -0.1667913906
 H        -3.0211701648        5.8989465226        2.5694653861
 H        -2.3631328817        4.3466402797        2.6722640797
 H        -1.2320330692        5.6557032570        2.6772258685
 Na        1.3123840310        2.4621980780        1.0043582465
