155

 C         4.0548930050        5.4981306379        2.2294404355
 C         2.7636597862        4.6057874448        2.4379669620
 C         1.7193277560        4.8994796444        3.4872872698
 C         1.5626817924        3.6746725010        4.4334689678
 C         1.7860709404        3.7356518462        5.9543656304
 C         2.1873699501        6.1654367534        4.2641910755
 C         0.3934688661        5.2299870909        2.8341045948
 O         2.7409119664        3.6004898045        1.7085005084
 O         1.1538963942        2.6617334080        3.8932871364
 C         2.2306013749        2.4070205341        6.5533949840
 C         3.6320347367        1.9987603518        6.0216298399
 C         4.1854014799        0.6188661450        6.3317828280
 C         3.6316096437       -0.3071541978        5.0491236184
 C         4.4826551017       -0.4711074116        3.7891764655
 O         4.1992427833        2.8661798973        5.3953490486
 O         2.5787509140       -0.9076883288        5.0899857049
 C         5.7352647006        0.7304643112        6.2906970096
 C         3.6276203352       -0.1259788880        7.5993085890
 C         3.7548960501       -1.3173740539        2.7465863755
 C         2.4271622600       -0.6270564085        2.2769667239
 C         1.2789210044       -1.3818897685        1.7837924824
 C         1.0370900174       -0.7185148917        0.2728697237
 C         0.8828708838       -1.5863849554       -0.9536448808
 C         1.4565684782       -2.8871680903        1.7752246588
 C         0.0644655165       -0.8839181420        2.5919155745
 O         2.5203805960        0.6036545436        2.2606370954
 O         0.7729612776        0.4658970601        0.1957068976
 C         1.8933770064       -1.1419724452       -1.9799282736
 C         3.2311455877       -1.6687073579       -1.5808108128
 C         4.0802275059       -2.3315111798       -2.6256777916
 C         3.1854369233       -3.5117143392       -3.2361890110
 C         3.3858212834       -3.8825390660       -4.7874751860
 O         3.6318409205       -1.4486738760       -0.4446286536
 O         2.3888058932       -4.0790815477       -2.5346646879
 C         4.4558747608       -1.1951591368       -3.5498302700
 C         5.3289731066       -2.8515624856       -1.8510670833
 C         2.3611210299       -4.7558607830       -5.4157096021
 C         1.4715680530       -4.0608408112       -6.4961109797
 C        -0.0547794580       -4.6894744145       -6.7337377408
 C        -0.7650432614       -4.7488808531       -5.3223005415
 C        -2.0300176465       -3.9633695901       -4.9385169399
 C        -0.7735692599       -3.8927821750       -7.8191160551
 C         0.0260647663       -6.1911928226       -7.2239269495
 O         1.8062811327       -3.0616277907       -7.1281720101
 O        -0.2757411814       -5.5072424878       -4.4719385814
 C        -2.7856891505       -4.5613160517       -3.7394604309
 C        -2.4863848642       -3.6854698836       -2.5049741558
 C        -3.1404307293       -3.9684284062       -1.0915162427
 C        -4.0918056179       -2.6761960479       -0.5313601688
 C        -5.0804517262       -1.8842616770       -1.5704338416
 O        -1.7781504340       -2.7213520146       -2.6249251838
 O        -4.1616650028       -2.3925155812        0.6191129972
 C        -4.0738845411       -5.2479336219       -1.0245178787
 C        -2.0387017900       -4.2243375502        0.0184489390
 C        -5.7064514341       -0.7696746503       -0.7215166733
 C        -6.5922800026        0.3637188237       -1.3655216644
 C        -7.5116429647        1.1553412898       -0.4073239844
 C        -6.6019052534        2.3979530294       -0.0448787666
 C        -6.2316238150        3.3345204583       -1.2402280793
 C        -8.7622496869        1.6448231210       -1.2080659078
 C        -7.9643700264        0.5637076665        0.8146564068
 O        -6.4722262147        0.7242847326       -2.5485011641
 O        -6.2177482686        2.5964405892        1.1175618376
 C        -5.1238777190        4.2903929607       -0.8356503116
 C        -3.7924734536        3.5400659156       -0.5937106493
 C        -2.5764565098        4.5435645497       -0.2115527267
 C        -1.3804002831        3.3880807914       -0.1424731597
 C        -0.8071122865        2.6981363449       -1.3606581421
 O        -3.6644628745        2.3493416067       -0.6291625628
 O        -1.1384985433        3.0214256693        0.9731444268
 C        -2.3307890724        5.7471367395       -1.1255800157
 C        -2.7552028927        4.9749505904        1.2224091469
 H         4.6643309436        5.6358749852        3.1552119498
 H         4.8365881903        4.9224138695        1.7630498805
 H         3.7886857963        6.5263211810        1.8255490792
 H         2.4704416409        4.5485927453        6.1501926026
 H         0.8210123646        3.9978176496        6.5185406360
 H         3.2253979124        6.0797917395        4.6230773657
 H         1.6297408076        6.6077942789        5.0814050020
 H         2.2312687800        7.0093342645        3.5057612724
 H        -0.1602120168        4.3226776160        2.3959825508
 H        -0.3391608731        5.7082801104        3.5208434669
 H         0.6325422391        5.8771753571        2.0214504419
 H         2.2573648376        2.5425132766        7.6067184872
 H         1.5340487413        1.5873683250        6.4778715514
 H         4.9138620172        0.4523928398        3.3484702792
 H         5.3306601698       -1.1106111707        4.1337346406
 H         6.0472683058        1.0643457150        5.3354187765
 H         6.2968916740       -0.2482872737        6.4219247374
 H         6.0991231391        1.3321470555        7.0794197936
 H         2.7811135498       -0.7654129342        7.3718124668
 H         4.4313229506       -0.8286509649        7.8453304477
 H         3.5311792509        0.6859147084        8.3724055279
 H         3.5818735732       -2.3184939935        3.1089589072
 H         4.4093204913       -1.5323187901        1.9217047107
 H         0.8824638252       -2.6273409524       -0.7548953580
 H        -0.0795005216       -1.2859552216       -1.3549602388
 H         0.6151040807       -3.4289376276        1.2741363610
 H         1.5557822860       -3.3617785289        2.7554380578
 H         2.2392586340       -3.2740729540        1.2395358401
 H        -0.8323983432       -1.0264572835        2.0464036433
 H        -0.1067168565       -1.3656499347        3.5285186305
 H         0.1338365609        0.2268140589        2.7556340121
 H         1.6664230145       -1.4524142043       -3.0865703634
 H         1.8733111000       -0.0307428689       -2.0910848906
 H         3.5373134828       -2.9869988993       -5.4112997026
 H         4.2666286329       -4.5315212450       -4.7112704545
 H         4.9901750223       -1.5075897442       -4.4519087245
 H         5.0004889771       -0.4270375803       -3.0314183114
 H         3.5260196581       -0.7497896377       -3.9844125926
 H         5.8007800159       -3.5671457126       -2.5924432043
 H         5.9833229278       -2.0930203934       -1.5239520721
 H         5.1753983465       -3.4467176586       -1.0248793906
 H         1.7696069198       -5.2193316849       -4.6012579510
 H         2.8486388878       -5.6103260142       -5.8038628722
 H        -1.6733112721       -2.9240417324       -4.6794404344
 H        -2.7839523035       -3.8938083883       -5.7342047979
 H        -0.9008469404       -2.8136664834       -7.3653505161
 H        -1.7192938737       -4.3267635714       -7.9125449394
 H        -0.0477955641       -3.9217843562       -8.6858403115
 H        -0.9374366092       -6.5659947320       -7.5009662418
 H         0.7706183032       -6.1944593757       -8.0319427396
 H         0.4904656916       -6.7766807915       -6.4005699978
 H        -3.8343191135       -4.5853891574       -3.8870921595
 H        -2.5043131820       -5.6084552811       -3.6997394479
 H        -4.6317495720       -1.5897448048       -2.4637904724
 H        -5.8378257658       -2.5908416393       -1.9574290449
 H        -4.7470216346       -5.3017179573       -1.9678330807
 H        -4.7626397185       -5.1135771239       -0.1276267782
 H        -3.5430907678       -6.1688838745       -0.9425644627
 H        -1.1578992765       -3.6151536801       -0.1755004832
 H        -2.3911059684       -3.8298861405        0.9764527745
 H        -1.7136399863       -5.2682103935        0.2998646791
 H        -4.8574633570       -0.1978879765       -0.2457770968
 H        -6.2389367679       -1.2626289527        0.1497258221
 H        -5.9734594002        2.7387697896       -2.0708692451
 H        -7.1389310953        3.8014913881       -1.6347229146
 H        -8.5122469699        2.0774233197       -2.1611413836
 H        -9.3970169403        2.4274458018       -0.6687858433
 H        -9.4620237650        0.8440030045       -1.3756704226
 H        -8.7339602713        1.2208064805        1.2986531519
 H        -8.3828304671       -0.4770630939        0.6688428125
 H        -7.1331594026        0.4652012708        1.5568806883
 H        -4.8794179602        4.9164412092       -1.6371485104
 H        -5.1928226515        4.8488516993        0.0679287909
 H        -1.2136104690        1.6775731018       -1.4131096528
 H        -1.0452052404        3.1912907078       -2.3272310141
 H         0.2401124124        2.4995984923       -1.3417124047
 H        -3.0750761382        6.4591404409       -0.9679193618
 H        -2.4279857490        5.6191662658       -2.1925814343
 H        -1.3610689315        6.2376743085       -1.0211940445
 H        -3.5839575630        5.6969113219        1.2653686332
 H        -2.8937198442        4.1695117298        1.8939137158
 H        -2.0154019351        5.5804212521        1.6638384641
 Na        1.0243574228        2.1742121175        1.7087923353
