155

 C         4.1477055770        5.1303856251        2.9503482065
 C         2.7588331831        4.5455883697        2.6407884963
 C         1.5626790204        4.8744087075        3.6437109408
 C         1.2092817315        3.5606131500        4.4619524337
 C         1.3833891096        3.5021383086        5.9792205769
 C         1.9932970497        6.0433145908        4.5264400058
 C         0.3723832555        5.3107708520        2.7340532123
 O         2.6402904916        3.8353881361        1.6367405193
 O         0.7684453833        2.5591015922        3.8950397781
 C         2.1201917189        2.2515723090        6.4549791632
 C         3.5560004251        1.9338607129        5.9520636045
 C         4.3085935442        0.6720840130        6.2895308609
 C         3.8499140116       -0.2693741724        5.1512147999
 C         4.7285055315       -0.4815174408        3.8606411670
 O         4.1115524091        2.8441895860        5.3837413002
 O         2.7070870091       -0.6983129469        5.2182621476
 C         5.8921070918        0.8564374422        6.3223685609
 C         3.9078126132        0.0000406697        7.5788702511
 C         3.9090313185       -1.2868598986        2.7643903209
 C         2.6434779402       -0.4140102150        2.2321754546
 C         1.3539169635       -1.1967352219        1.8288299560
 C         0.9719685110       -0.7016161052        0.3785442710
 C         1.0470077943       -1.6023786157       -0.8115551747
 C         1.5182342427       -2.7176359376        1.9055803575
 C         0.2694457974       -0.6814733957        2.8456616929
 O         2.7756316808        0.8207153998        2.3731710904
 O         0.7699649467        0.4781612117        0.1800757889
 C         1.9791585723       -1.0176600747       -1.9144878300
 C         3.4268874966       -1.4940787493       -1.6889530558
 C         4.3341629400       -2.1961139444       -2.6936973714
 C         3.2978384737       -3.0703829004       -3.4266264619
 C         3.3298001166       -3.3871662846       -4.8667822931
 O         3.8932115257       -1.3857576471       -0.5756996154
 O         2.4253614350       -3.5758031905       -2.7485163771
 C         4.9562639085       -1.0237599283       -3.5908099908
 C         5.2561119040       -3.1785621960       -2.0118248741
 C         2.3320671093       -4.4902778204       -5.2897393080
 C         1.4090609483       -4.0376142071       -6.4018639688
 C        -0.0048209046       -4.7084998538       -6.5476471027
 C        -0.7412904429       -5.0641792824       -5.1902064827
 C        -1.9967437099       -4.3385356547       -4.9760192049
 C        -0.7384969615       -3.6888020469       -7.4522501122
 C         0.2506738433       -6.0461365072       -7.3690635305
 O         1.8553349405       -3.1853911463       -7.1806144363
 O        -0.3735816590       -6.0340483860       -4.5241993381
 C        -2.7071263185       -4.6366957855       -3.6172008687
 C        -2.5880679802       -3.4774097670       -2.5245432897
 C        -3.3035388119       -3.8420464560       -1.1620415424
 C        -3.9498413729       -2.5051809751       -0.4660533217
 C        -4.5866340134       -1.4508324909       -1.3554983904
 O        -2.0601042584       -2.3800057198       -2.6277525276
 O        -3.9606114289       -2.4337967859        0.7465147766
 C        -4.5756991654       -4.6736283660       -1.3972173202
 C        -2.3563774011       -4.5802219035       -0.2126612131
 C        -5.7920291967       -0.7707060225       -0.6436534659
 C        -6.5850913402        0.1603752438       -1.5091457832
 C        -7.5070152479        1.1307982259       -0.6677700057
 C        -6.6316457301        2.4502252512       -0.2749977390
 C        -6.4221370094        3.3785953241       -1.4792221263
 C        -8.8156157276        1.4441033596       -1.5323063010
 C        -7.9966909869        0.4468043812        0.7307776620
 O        -6.5147415824        0.1407174113       -2.6854984773
 O        -6.0966431356        2.6423427921        0.7909233319
 C        -5.2037360210        4.2554530783       -1.2891306758
 C        -3.9882878000        3.4027584931       -0.8528689719
 C        -2.7765224022        4.1070626208       -0.1439047592
 C        -1.6234723818        3.1197297498        0.0577323334
 C        -0.5671953732        2.9244060511       -1.0716342263
 O        -3.9449477423        2.2057602295       -1.0670504382
 O        -1.3474520398        2.7222039869        1.1952342033
 C        -2.3467020495        5.3993017682       -0.9363840220
 C        -3.1370772690        4.6045415999        1.2789579190
 H         4.4560217410        4.9904018109        3.9862122943
 H         4.8979654319        4.5497730713        2.3213031652
 H         4.2087022524        6.2256116957        2.7322457098
 H         1.8399201201        4.3963679641        6.3477347753
 H         0.3064733068        3.4071976964        6.3383934673
 H         2.8387568163        5.8448520594        5.1762658843
 H         1.1937357708        6.3189712567        5.1726047170
 H         2.1789912595        6.9710069380        3.9810393864
 H        -0.0249163993        4.5177020177        2.0265929169
 H        -0.4474040851        5.4721334042        3.5327834270
 H         0.4905289947        6.3051929520        2.2525263229
 H         2.1810095691        2.2540167769        7.5749410223
 H         1.4298663854        1.4418395370        6.2540381468
 H         5.0312181064        0.5063641014        3.4533261842
 H         5.6547026655       -1.0505893024        4.0837626376
 H         6.3585338178        0.8860733254        5.3286403778
 H         6.4675093115        0.0367413676        6.8751633624
 H         6.2173266332        1.7972155510        6.7839827535
 H         2.8294082693       -0.3259447298        7.6576430923
 H         4.5396229167       -0.9731580005        7.5720642538
 H         4.1761873281        0.6810974249        8.4850625055
 H         3.6056940330       -2.2171230681        3.2853381768
 H         4.4878899042       -1.7000389121        1.9323848146
 H         1.3303360495       -2.6258326163       -0.5247907713
 H         0.0737330159       -1.6500401347       -1.2901440363
 H         0.7176850514       -3.2650941885        1.4160049490
 H         1.5814232924       -3.0724444921        2.9343547598
 H         2.3889826641       -3.1566565341        1.5099815857
 H        -0.6150665236       -1.2277353433        2.8797561350
 H         0.5581524133       -0.6833314656        3.8576652724
 H         0.0204033486        0.3259989974        2.4825216060
 H         1.5044055992       -1.3768997643       -2.9761954052
 H         1.9593519679        0.0696638989       -1.8279053571
 H         3.0904452011       -2.4919428385       -5.5008783971
 H         4.3478036383       -3.6225754105       -5.1688006610
 H         5.8161226580       -1.3518885903       -4.2169994844
 H         5.4773647964       -0.3897566325       -2.8713873132
 H         4.1961002128       -0.5413280505       -4.2636534860
 H         5.8760487474       -3.6662522344       -2.7226931945
 H         5.7360847055       -2.7756311907       -1.1823708224
 H         4.7110968800       -3.9457486186       -1.6178863544
 H         1.6776400342       -4.6761291033       -4.3680213944
 H         2.7263796364       -5.5035341229       -5.3938239206
 H        -1.8627951621       -3.2226250065       -5.0347093854
 H        -2.6467819299       -4.5611276375       -5.8044239786
 H        -0.7085795521       -2.7059081317       -6.9124112734
 H        -1.7566592233       -4.0362715562       -7.5226066773
 H        -0.0115779856       -3.7436137262       -8.3753889277
 H        -0.6766074058       -6.5889800998       -7.4401029211
 H         0.6552635935       -5.6699668851       -8.2946947365
 H         0.9477869542       -6.6739999827       -6.8735928390
 H        -3.7704762435       -4.8688250355       -3.7698265097
 H        -2.2966907697       -5.5341644261       -3.0584631659
 H        -3.8974550591       -0.9030410406       -1.8919591670
 H        -4.9906828372       -2.0377448007       -2.1881683668
 H        -5.4356733136       -4.3306917486       -2.1334147759
 H        -5.2249898950       -4.7027094088       -0.4793369351
 H        -4.1771583229       -5.5961954125       -1.6998994045
 H        -1.7838838077       -3.9594583908        0.4747773522
 H        -2.8195170123       -5.3534072512        0.3839306879
 H        -1.5965387949       -5.1934961722       -0.7396426551
 H        -5.3557665267       -0.1601437424        0.1969369342
 H        -6.4912029361       -1.6076075179       -0.3046477516
 H        -6.3971687446        2.6724520781       -2.2766387376
 H        -7.3104645925        3.9889411140       -1.6558984152
 H        -8.5019875934        1.6722039171       -2.5315948595
 H        -9.3399174469        2.3440383781       -1.1640234345
 H        -9.5118364724        0.6367607976       -1.6440354433
 H        -8.6469884603        1.1750484442        1.1488740834
 H        -8.7914542727       -0.2377552919        0.5724462054
 H        -7.3016323498        0.1076863837        1.4999168810
 H        -4.8588263402        4.7350805934       -2.2141551744
 H        -5.3699947610        5.0122174500       -0.5161100032
 H         0.1148576162        2.1941339753       -0.8724354558
 H        -0.9897745691        2.6421575793       -2.0295658289
 H         0.0231921071        3.7916063316       -1.2999658092
 H        -3.0765102185        6.1749636672       -0.9941037146
 H        -2.0679978135        5.2327545070       -1.9850313883
 H        -1.4507330285        5.8554695171       -0.5004404974
 H        -3.8452459803        5.5168415451        1.3456801294
 H        -3.6420768346        3.8281274530        1.9441263462
 H        -2.2521591833        4.8913371538        1.8352329741
 Na        1.1690168010        2.0870242642        1.8126703452
