155

 C         4.1486108021        4.9310890630        3.2381462106
 C         2.7208453031        4.5797993145        2.9203358260
 C         1.5395851165        4.9987546791        3.9474894474
 C         1.1383065581        3.6356715990        4.7420558756
 C         1.4287244205        3.3731344691        6.1742634637
 C         1.8315216713        6.1418537891        5.0102339880
 C         0.2539026016        5.4712726210        3.1359203840
 O         2.4259553492        4.0192131459        1.9029856055
 O         0.6898996535        2.7336945454        4.0955648786
 C         1.9858512641        1.9320420329        6.3716584178
 C         3.5037407453        1.9621733666        6.0982424700
 C         4.4228497691        0.7283619654        6.3055335511
 C         3.9763028449       -0.3810592916        5.2485393844
 C         4.8701686718       -0.8157593798        3.9448233593
 O         3.9801492597        2.9920413461        5.6004677857
 O         2.7750320237       -0.5532326151        5.2340484890
 C         5.9434424774        1.0597565769        6.2074682931
 C         4.1032797425        0.2576962182        7.6936024336
 C         4.0193126362       -1.4485276876        2.7383472721
 C         2.8261644166       -0.5023630617        2.3435542929
 C         1.4687397050       -1.2879107597        1.8621750806
 C         1.1711514877       -0.7417450014        0.5014884481
 C         1.3152980524       -1.5083958152       -0.8137334517
 C         1.5761100903       -2.8132154927        1.8283878668
 C         0.4675993294       -0.9482603891        2.9841006934
 O         2.8506170780        0.7162290938        2.2864809135
 O         0.9618242130        0.4364221677        0.3432549465
 C         2.3367069991       -0.8184716368       -1.7836685768
 C         3.7284269940       -1.4660572816       -1.5883350296
 C         4.3072459962       -2.2811721055       -2.6977625046
 C         3.3901357863       -3.3208651616       -3.3311069914
 C         3.4295375614       -3.6553282097       -4.8087261734
 O         4.4127945792       -1.1763481735       -0.6334845015
 O         2.4982489923       -3.7130594099       -2.6002954178
 C         4.7547731883       -1.2420775339       -3.7512633729
 C         5.5610753670       -2.9669725632       -2.0362690094
 C         2.4177835603       -4.5562115338       -5.5592389268
 C         1.3550133883       -3.8975988162       -6.5149492236
 C         0.0733745817       -4.7667456825       -6.7674807599
 C        -0.6062346910       -5.0205727807       -5.3606270785
 C        -1.6280686035       -4.0734994306       -4.7565734075
 C        -0.8270942709       -3.9293267442       -7.7666731252
 C         0.5052759981       -6.0813038555       -7.5018150287
 O         1.4996045894       -2.7915824493       -6.9426352855
 O        -0.2629433590       -6.0312880755       -4.8204302314
 C        -2.2811074819       -4.6796628892       -3.4765766819
 C        -2.8313183639       -3.4793745796       -2.5720882328
 C        -3.7422244596       -3.8562510441       -1.2255754990
 C        -3.7932131437       -2.5080016839       -0.4133159340
 C        -4.4044473687       -1.2347769190       -1.0270167993
 O        -2.4984823903       -2.3019876935       -2.7516205307
 O        -3.0609936130       -2.2806414307        0.5376303165
 C        -5.1314680028       -4.4685692877       -1.5087894467
 C        -2.8925365866       -4.8950297962       -0.4044439848
 C        -5.7067874040       -0.7797896847       -0.2797977361
 C        -6.5492082284        0.0485869187       -1.3018888036
 C        -7.6414881920        1.0187131399       -0.7979984446
 C        -6.8176983340        2.4001325010       -0.5971518361
 C        -6.3835846980        3.0144971627       -1.9594103487
 C        -8.7852620687        1.1956025740       -1.9052826258
 C        -8.3840929725        0.6093492720        0.4312433198
 O        -6.5247270453       -0.2953900060       -2.4273747288
 O        -6.4395695281        2.7407555879        0.4787938638
 C        -5.2714790886        4.0900903575       -1.7894698044
 C        -3.9674276121        3.3478416301       -1.2205855372
 C        -3.0698896909        4.0934832442       -0.1152431904
 C        -1.7454416336        3.3717462754        0.0155126615
 C        -0.9226643209        3.0478574774       -1.2258063417
 O        -3.6089911109        2.2424336330       -1.6801350491
 O        -1.2854056744        3.0992986566        1.1455226197
 C        -2.7885530080        5.6282478823       -0.4564037466
 C        -3.6701099080        4.0075155742        1.2949636842
 H         4.7664514543        4.1095018332        3.0331343854
 H         4.4734867410        5.7295084099        2.5313070942
 H         4.4303959642        5.2103406333        4.1952320554
 H         2.0453904220        4.0950118916        6.6360091317
 H         0.4255211446        3.2745414646        6.6281193568
 H         2.7757882884        5.9387225781        5.5123424308
 H         1.1176062916        6.3573091166        5.7666138958
 H         2.0401034274        7.0573691299        4.4929796082
 H        -0.0312617860        4.6270821021        2.5817047082
 H        -0.5293447226        5.8105433388        3.8450775860
 H         0.4737820430        6.3204574487        2.4093168267
 H         1.6728699271        1.6326123822        7.4481039907
 H         1.5007106700        1.2727493199        5.6284944441
 H         5.3426182256        0.0959298903        3.5635768385
 H         5.7030888071       -1.4550938257        4.2417710219
 H         6.0663682197        1.7789737198        5.4060735557
 H         6.5578677228        0.1954682244        5.9927604745
 H         6.3999134230        1.6325539375        7.0269641687
 H         3.1774368785       -0.3454212543        7.7742439325
 H         5.0148435176       -0.2462402213        8.1256095151
 H         3.8427517341        1.0025412615        8.4665945887
 H         3.6343378956       -2.4865945624        2.9882246878
 H         4.6144959596       -1.5151940522        1.7980456928
 H         1.5380158708       -2.6178398862       -0.7470489477
 H         0.2972974253       -1.4469100833       -1.1567917460
 H         0.6902547582       -3.2409794631        1.4488081036
 H         1.5703266940       -3.2577416051        2.8441404286
 H         2.4542923127       -3.2633299916        1.3141998665
 H         0.8036017155       -1.1892157502        4.0099795909
 H         0.2430088613        0.1497930394        2.9826123725
 H        -0.5184176742       -1.4312348433        2.8106239243
 H         1.9997197813       -0.9977926842       -2.8535551852
 H         2.4010871489        0.2252643547       -1.4269704781
 H         3.4906506805       -2.6938150351       -5.3580775037
 H         4.4092341209       -4.0137011021       -5.1034725550
 H         5.0490827412       -1.7928817686       -4.6313418147
 H         5.6198921148       -0.6418608412       -3.4090045237
 H         3.9433742107       -0.4988390966       -3.8832367980
 H         6.0123288236       -3.6169646710       -2.7018315030
 H         6.3414171187       -2.2528765190       -1.6810218271
 H         5.2317500510       -3.5490926334       -1.1507789838
 H         1.8135441580       -5.1615696449       -4.7913719617
 H         2.9092715405       -5.3676231128       -6.1141485852
 H        -1.2584347249       -3.0426077708       -4.6560096594
 H        -2.3413134817       -3.9151839133       -5.5114357490
 H        -0.9518430576       -3.0410861997       -7.1607942010
 H        -1.6635688977       -4.6975525265       -8.0419497797
 H        -0.1773602809       -3.7663243964       -8.6626762958
 H        -0.4086798665       -6.4149480446       -8.0612140694
 H         1.2410811576       -5.7433579118       -8.2492228180
 H         0.8338428229       -6.8021608188       -6.8204675525
 H        -3.0217288119       -5.4843626178       -3.5912238392
 H        -1.3869504476       -5.0193645952       -2.8533683328
 H        -3.6749462846       -0.4836991772       -1.0250658641
 H        -4.6863232859       -1.3678156372       -2.0891310616
 H        -5.8222643737       -3.6109019037       -1.7306002322
 H        -5.4643748736       -5.0337404542       -0.5767508518
 H        -5.2418558212       -5.2692197969       -2.2866495694
 H        -2.2992926508       -4.4055110115        0.3450405022
 H        -3.5201024850       -5.5507315600        0.1566440650
 H        -2.1482582172       -5.4544102307       -0.9173797873
 H        -5.3911343075       -0.1286064861        0.5671486684
 H        -6.3714277652       -1.6158129056        0.0845128763
 H        -6.1407230814        2.2630841098       -2.6741634133
 H        -7.3423422054        3.5589895739       -2.1479466639
 H        -8.3281901910        1.4377946326       -2.8589669883
 H        -9.4565432972        2.0148865687       -1.6857684746
 H        -9.3541148809        0.2695774958       -2.0497115106
 H        -9.2620232157        1.2166289369        0.5465829100
 H        -8.7175699273       -0.4050934649        0.3585874420
 H        -7.7784276173        0.7790712088        1.3295937248
 H        -5.1490758971        4.6308914897       -2.7995470788
 H        -5.4740812661        4.8586273859       -1.0432686807
 H        -0.0868285578        2.4936240851       -0.9287505132
 H        -1.4361740333        2.4347916883       -1.9377319217
 H        -0.5205574745        3.8780007942       -1.8184157771
 H        -3.7045069548        6.2127736580       -0.3902905237
 H        -2.3332285359        5.8966785304       -1.4272034714
 H        -2.2497644138        6.1241894142        0.3552611011
 H        -4.6935090924        4.4122982284        1.4498759806
 H        -3.9462589193        2.9577712305        1.5960448179
 H        -2.9789856434        4.4507846476        1.9990530140
 Na        0.9300519259        2.3661306678        1.7177549883
