155

 C         3.7237122122        5.6130929553        3.5705780651
 C         2.3957757776        4.8379282088        3.5563912468
 C         1.3816808089        4.8217189123        4.7379707243
 C         1.0636384595        3.3639025781        5.2511591826
 C         1.1714751570        2.9946723246        6.7267967800
 C         1.8791629732        5.7424479685        5.8633516228
 C         0.1030495624        5.3904039974        4.0156249058
 O         2.2032525599        4.1529699075        2.5703870881
 O         0.5837549723        2.6114175660        4.4598926947
 C         2.2568638752        1.8923374517        6.9684371841
 C         3.5895729513        2.0749865666        6.2613246171
 C         4.6013699831        0.9131476536        6.2981477032
 C         4.0673083072       -0.0442668085        5.0573202281
 C         4.6314242031        0.0878219026        3.6165784941
 O         3.9875634204        3.1955953222        5.8810641024
 O         3.1841106411       -0.8246056716        5.3428192148
 C         6.0887644473        1.3412591884        5.9906865295
 C         4.5685014505        0.0552891961        7.5455502522
 C         3.9226772401       -0.6913294979        2.5154688660
 C         2.4660356087       -0.1593498187        2.3105471324
 C         1.4575276025       -0.9569033535        1.5226276992
 C         1.3469091509       -0.2703679041        0.1605921146
 C         1.2676803310       -1.0830147422       -1.0660156734
 C         1.8509016669       -2.4147088180        1.2403152215
 C         0.0024596778       -0.8296368488        2.2367863216
 O         2.1921690702        0.8077335281        2.9680115977
 O         1.1244806117        0.9701315276        0.1465247762
 C         2.4105626407       -0.7999978815       -2.1128269079
 C         3.6746594511       -1.6507018388       -1.7694790284
 C         4.4866830368       -2.1945956970       -2.9311877017
 C         3.6935805695       -3.2536701036       -3.6766110929
 C         3.8838509630       -3.4732097325       -5.2080077720
 O         4.0605251879       -1.8897749397       -0.6454926572
 O         2.9613157467       -3.9849910001       -3.0516456022
 C         4.9613055763       -1.0159293725       -3.8603065775
 C         5.8024286078       -3.0204768870       -2.6020276486
 C         2.9714036933       -4.5482347696       -5.6578943496
 C         1.5007950784       -4.0450733455       -5.5662768379
 C         0.3381589598       -4.8128632262       -6.4247374691
 C        -0.6549489890       -5.2551389482       -5.3733399504
 C        -1.5751632933       -4.1609590472       -4.7339732432
 C        -0.0996593768       -3.7279622557       -7.4988369430
 C         0.8469815899       -6.0234893573       -7.1248186240
 O         1.2239538867       -3.0776273649       -4.8939257002
 O        -0.8116793355       -6.4420220348       -5.2020813861
 C        -1.9464224152       -4.5776003032       -3.2656873194
 C        -2.5150391362       -3.3223130876       -2.6034842935
 C        -3.6700475513       -3.4967305688       -1.5536420959
 C        -3.5647296431       -2.1446159662       -0.6980908145
 C        -4.2696434205       -0.9043720239       -1.2468421368
 O        -2.2242609030       -2.2045710189       -3.0550403064
 O        -2.9243812415       -2.1038699796        0.3413539227
 C        -5.0819754190       -3.6500730842       -2.3849495663
 C        -3.4847217307       -4.7732646171       -0.6294641524
 C        -5.5603101919       -0.5575419770       -0.4613029203
 C        -6.7473413719       -0.3790159210       -1.5784745720
 C        -7.8855465659        0.5900193947       -1.2578055435
 C        -7.0791846874        1.9517276190       -1.1235812225
 C        -6.1019618512        2.2603515933       -2.2156580201
 C        -8.8787711453        0.5420283706       -2.5344517575
 C        -8.5997472684        0.3236907557        0.1270533034
 O        -6.5460764133       -0.8122909284       -2.6686870046
 O        -7.1946652450        2.6053792314       -0.1234521544
 C        -5.2145042582        3.4629063582       -1.9203844142
 C        -3.8187929260        3.0270136408       -1.3000825687
 C        -3.3151456927        3.7149144649       -0.0516224533
 C        -1.7585294194        3.4189949531        0.1179950995
 C        -0.7836381854        3.9393898851       -0.8891461634
 O        -3.2111298453        2.0453342308       -1.8014892247
 O        -1.3733207108        2.8802360929        1.1533469598
 C        -3.4355070022        5.2500551606       -0.2424068702
 C        -4.0080153806        3.3266221126        1.2817179843
 H         3.8943221551        6.1857661698        4.4757189665
 H         4.5509606766        4.9503072394        3.2872045659
 H         3.6359007378        6.3223701825        2.7658074945
 H         1.3789465599        3.7919695291        7.4552711983
 H         0.1894147228        2.6623920033        7.1092865739
 H         2.7978139244        5.3855287622        6.3435292711
 H         1.0719967088        5.6963145416        6.5691337277
 H         1.9557778290        6.8313041696        5.5745563030
 H        -0.0227766476        4.7331103715        3.2238910211
 H        -0.7809654711        5.3507515166        4.6787603367
 H         0.3389120307        6.4219587997        3.7139029998
 H         2.5137472531        1.7577277005        7.9938033409
 H         1.6881986115        0.9809107108        6.5848008590
 H         4.8227900689        1.1232929036        3.3214513581
 H         5.6722300509       -0.3080304993        3.6912912779
 H         6.1161239460        1.9279226081        5.0903587625
 H         6.7020770343        0.4045446780        5.8583601434
 H         6.4518674630        1.8419864505        6.8590420246
 H         3.6132857896       -0.1048930801        8.0031186085
 H         4.8193316870       -0.9874969943        7.4402702547
 H         5.1503048457        0.4577211286        8.3804305793
 H         3.8617155084       -1.7024610810        2.9209649885
 H         4.5578409513       -0.6653454895        1.5939747333
 H         1.1428710894       -2.1225682155       -0.9733023447
 H         0.2676452226       -0.6593972222       -1.3656815114
 H         0.9626898696       -2.9026784573        0.7845699118
 H         2.0761548548       -2.8296861311        2.2400925526
 H         2.7321979785       -2.5045252989        0.6305965082
 H        -0.8031300105       -0.4165657820        1.6352975910
 H        -0.3163046905       -1.8670959508        2.5264196554
 H         0.2258738082       -0.2134632974        3.1809766097
 H         1.9705967652       -0.9260203061       -3.1903369806
 H         2.7126652105        0.1602659021       -2.2261989653
 H         3.7491692526       -2.5456558252       -5.7607917412
 H         4.9165106703       -3.8448196993       -5.4388733344
 H         5.9869286541       -1.2340239206       -4.1382109558
 H         5.0394159496       -0.1319755821       -3.3020981959
 H         4.3757721249       -0.9393594323       -4.7740274532
 H         6.2506885829       -3.1101190844       -3.5193145245
 H         6.4787951984       -2.5888171820       -1.8417920349
 H         5.5542439653       -4.0596406094       -2.2523983555
 H         3.0964900117       -5.3400780594       -4.8592106740
 H         3.2312606128       -4.8330219729       -6.7085777323
 H        -1.0046395999       -3.2623052923       -4.6899486660
 H        -2.4849446405       -4.0901259059       -5.3928678423
 H        -0.2364714749       -2.7487149051       -7.0719412388
 H        -1.0390898614       -4.2880077487       -7.8219638271
 H         0.7621786591       -3.8688182288       -8.1809719219
 H         0.0717978990       -6.5240042588       -7.6686018796
 H         1.7695749472       -5.7645262677       -7.6800362274
 H         1.1540274910       -6.7427072517       -6.3424659548
 H        -2.6238311890       -5.4294988389       -3.2887119008
 H        -1.0168927032       -4.9715773659       -2.7994086474
 H        -3.6161163588       -0.0602228563       -1.2191637279
 H        -4.5498770376       -1.0637689501       -2.2584277436
 H        -5.0820230427       -3.0752700868       -3.3156347863
 H        -5.9602199205       -3.2130602898       -1.7836517061
 H        -4.9810838743       -4.7131755512       -2.6793822745
 H        -3.0884358505       -4.4113924901        0.2792392249
 H        -4.4012851891       -5.2571318252       -0.4115970081
 H        -2.8710887968       -5.5109707657       -1.1583468606
 H        -5.4956410841        0.4250983898        0.0849433473
 H        -5.7891624745       -1.3239925332        0.3395948055
 H        -5.4064487530        1.3918296598       -2.4095343674
 H        -6.7400366346        2.3792076186       -3.0620224321
 H        -8.4282233688        1.0473311344       -3.3757540729
 H        -9.8309520882        1.0556428685       -2.1776704601
 H        -9.0348890304       -0.4758910779       -2.8136362399
 H        -9.3531903606        1.0967452579        0.1976257479
 H        -9.0772613308       -0.6614680735        0.1607883717
 H        -7.8074037085        0.3450180050        0.8687635828
 H        -5.0846366060        3.9210039021       -2.8497033679
 H        -5.7044610971        4.2967462412       -1.3255473313
 H        -0.3439738400        4.8017131900       -0.4799883139
 H         0.0319712271        3.2141370523       -1.1290019819
 H        -1.2865273915        4.1685538842       -1.8431034173
 H        -4.3471303491        5.5020957847       -0.7490931521
 H        -2.6400517710        5.6962743055       -0.9019470936
 H        -3.3797996398        5.7508325215        0.7700619662
 H        -5.1158783680        3.3881372600        1.2271964092
 H        -3.6764176593        2.3406971015        1.6741622624
 H        -3.8481087525        4.0677298468        2.0188249722
 Na        0.7255457778        2.3146733683        2.0805993000
