155

 C         6.4942174564       -0.6796873024       11.4347599688
 C         6.1538783692        0.3688009971       10.4332647675
 C         6.6500048418        0.3149343392        8.9450816066
 C         5.7012418437       -0.7208519559        8.1204457329
 C         4.5655663497       -0.1798118070        7.3123789588
 C         6.6019385590        1.7483369248        8.3259818012
 C         8.1778654054       -0.1330584065        8.7822036646
 O         5.5169068221        1.3141726968       10.7998536989
 O         6.0543741536       -1.8746098362        8.2678234146
 C         4.0634046025       -1.1528275713        6.3223249102
 C         3.0995719529       -0.4510580641        5.3523370215
 C         2.7504825164       -1.2226545816        4.0306991643
 C         1.6228679194       -2.2003267532        4.4358003008
 C         0.8647534660       -3.1248514489        3.4559995916
 O         2.7039131164        0.6817568513        5.5257898894
 O         1.3302580965       -2.2704726962        5.6314496729
 C         2.4424496746       -0.1705490590        2.9679407002
 C         3.9419313037       -2.0156978030        3.5373274888
 C        -0.6451908751       -3.2339327167        3.6702168239
 C        -1.4053825142       -2.7437576816        2.4497859302
 C        -3.0038849618       -2.4243030888        2.4883776796
 C        -3.2181218689       -0.7926480018        2.6724592892
 C        -3.8578198143       -0.1596701542        3.9638039833
 C        -3.6415042244       -2.7703014579        1.0662592031
 C        -3.6562992657       -3.1197168206        3.6542904232
 O        -0.8157115842       -2.4254412677        1.4143396394
 O        -3.1152641040       -0.0900545138        1.6823055682
 C        -3.5420238973        1.3866806539        4.0632112573
 C        -2.0514291554        1.5569074331        4.3407139626
 C        -1.5350045897        3.0585435176        4.7621101456
 C        -0.6736580026        3.5165762282        3.4938344197
 C         0.6760643142        2.9392315915        3.2175714034
 O        -1.1988374809        0.6839125037        4.3229110716
 O        -1.0964592103        4.3102463511        2.6959218189
 C        -2.6119115831        4.1140978461        5.0348892851
 C        -0.6557411188        2.8924088829        6.0632170108
 C         1.2529997045        3.1402077979        1.7858341322
 C         0.5320335836        2.2671226175        0.7901913771
 C         1.0252095976        2.3326069084       -0.7107660932
 C         0.5802310591        1.0252934438       -1.4620547010
 C         0.1426168158        1.1061282942       -2.9082133672
 C         0.4512871275        3.5925310919       -1.2835212261
 C         2.5644652819        2.2185627602       -0.9080880808
 O        -0.3832022414        1.5990226388        1.1891164091
 O         0.9168990295       -0.0606156415       -0.9939447522
 C        -0.6956483636       -0.2122527658       -3.3434081990
 C        -2.1154880358       -0.3509785256       -2.6786161149
 C        -3.3757819671        0.3002686479       -3.4804444228
 C        -4.0687401151       -1.0285715243       -4.1963478036
 C        -3.8451176908       -1.2852741117       -5.6983291644
 O        -2.2872904932       -0.6255095860       -1.5093813183
 O        -4.8738292715       -1.7193231939       -3.5908917975
 C        -4.3010882873        0.9190097456       -2.4684270667
 C        -3.1148060814        1.4599628049       -4.5284814740
 C        -4.5766382619       -2.5545552696       -6.1789412847
 C        -4.4794696716       -2.6506879855       -7.7101778508
 C        -5.3063093221       -1.5855398351       -8.5867843013
 C        -4.3286734394       -0.4294244052       -8.7339681918
 C        -3.1106967386       -0.7679004689       -9.7640158691
 C        -5.6386559350       -2.2446640590       -9.9702269897
 C        -6.5761633481       -1.1618444406       -7.9234128576
 O        -3.9080131578       -3.5066315607       -8.3624977340
 O        -4.3022382820        0.5676988864       -8.0281372153
 C        -1.8314684275        0.1018691340       -9.4084109093
 C        -0.5353955974        0.1977211038      -10.2518273149
 C         0.7723650601        0.2596397742       -9.3809207894
 C         0.6862272444        1.0663833341       -7.9946922018
 C         1.3757830150        2.3921789605       -7.7146042711
 O        -0.5073410629        0.4068783428      -11.4234913525
 O         0.0728650817        0.6908141646       -6.9966094189
 C         1.0896946907       -1.2634592180       -8.9396378421
 C         1.9398923966        0.9168910167      -10.1523869808
 H         5.7613445607       -1.4465650743       11.4213897033
 H         7.4944380796       -1.0506454104       11.1153139788
 H         6.4335078165       -0.1854889858       12.4535737362
 H         3.7311502326       -0.0095101828        7.8822598924
 H         4.8518878152        0.7557770656        6.7569097309
 H         7.4577928051        2.3440417311        8.6024601858
 H         5.8002949084        2.2558082674        8.8288060190
 H         6.5773401506        1.7366970454        7.2740811210
 H         8.2663373892       -1.2925947925        8.8615298529
 H         8.4858835608        0.2611702026        7.8638226392
 H         8.7099449707        0.3379205407        9.5298639274
 H         4.8033263507       -1.3116187319        5.5808186899
 H         3.4644320245       -2.0130240277        6.6183252811
 H         0.9343278142       -2.6874039840        2.4953842810
 H         1.3764206977       -4.1065437131        3.4878023957
 H         1.5336554195        0.3653183510        3.1623321979
 H         2.4252730258       -0.5650552035        1.9866225925
 H         3.2131960750        0.6074654874        3.0913036092
 H         4.3278063237       -2.7950854528        4.1004729191
 H         3.6886257522       -2.4876962411        2.6301428937
 H         4.7608990089       -1.4025601352        3.2785622526
 H        -1.0163274745       -2.5435608959        4.5055243876
 H        -0.9837445990       -4.2154635381        3.9863746522
 H        -4.9977982290       -0.4403092310        3.8872872374
 H        -3.3282206533       -0.6076837866        4.7916962634
 H        -3.1746084721       -2.2305959548        0.3271636958
 H        -4.6928039264       -2.7169907578        1.1408476269
 H        -3.3608311355       -3.8244986060        0.8646222008
 H        -3.3121775012       -4.1421114724        3.5741199411
 H        -3.3227351342       -2.7033456368        4.6284159073
 H        -4.7362291095       -3.2256045482        3.4816335255
 H        -3.8554195181        1.9685086244        3.1786579050
 H        -4.1050077907        1.8095786089        4.8804864583
 H         1.2297059092        3.5703569815        3.9294724945
 H         0.6868226870        1.9091431889        3.6765033520
 H        -3.3860955776        3.8454386515        5.6999176683
 H        -2.9947363568        4.4381351556        4.0401300841
 H        -2.1926056481        4.9444601224        5.6734977546
 H        -0.5060583624        3.9494789856        6.3564858926
 H        -1.1726345621        2.3659056256        6.8629815937
 H         0.2429975973        2.3325583795        5.8986963614
 H         2.3333853299        3.1326488903        1.7823625141
 H         0.8774239881        4.2032068705        1.5338801060
 H        -0.2708831863        2.1178154697       -3.0688081401
 H         1.0695922182        1.1880580723       -3.5596412540
 H         0.7076015287        4.3848263646       -0.6205463783
 H        -0.6110062501        3.6242063986       -1.1877482520
 H         0.8062342584        3.8276828253       -2.2889777108
 H         3.0227958002        3.1397372675       -0.6026689282
 H         2.8311273421        1.2988190232       -0.3829422945
 H         2.7213825661        2.0558723278       -1.9429507103
 H        -0.7928743386       -0.2462825824       -4.4136424727
 H        -0.0887886906       -1.0503325059       -3.1031641427
 H        -4.2371758494       -0.3944284820       -6.2256168943
 H        -2.8162439882       -1.3002769129       -6.0155672129
 H        -5.2467874950        1.1897146159       -2.9033491308
 H        -3.7802235213        1.8474167132       -2.2625702664
 H        -4.6207635493        0.3412620586       -1.6802663159
 H        -2.7601685373        2.3548540754       -4.0333772365
 H        -2.4824358196        1.1821849940       -5.2859973534
 H        -4.1051068181        1.5415746609       -4.9641070777
 H        -5.5866719959       -2.4155358452       -5.9024464040
 H        -4.1580167796       -3.4791064345       -5.6211304159
 H        -2.8847114328       -1.8800650286       -9.6518443364
 H        -3.4144915644       -0.4986913045      -10.7435071430
 H        -6.6620166187       -2.5169086462       -9.9660430529
 H        -5.1514156683       -3.1176857213      -10.3568274045
 H        -5.5499579513       -1.5094937205      -10.7464332400
 H        -7.1714445158       -2.0625525951       -7.7449863630
 H        -6.4431801183       -0.7082199419       -6.9865476411
 H        -7.2124336399       -0.6392961892       -8.6455260896
 H        -2.1138884937        1.1775408714       -9.4124296439
 H        -1.7213209760       -0.1268364501       -8.3467193031
 H         2.2792065088        2.4389490805       -8.2936759983
 H         0.7678713478        3.2172586242       -8.0945444815
 H         1.5994697781        2.5684069724       -6.6231020901
 H         1.1197910159       -1.9374967719       -9.8115500773
 H         0.3656998632       -1.5974537339       -8.1669239737
 H         2.1501199078       -1.2049620772       -8.5727969758
 H         1.9945653802        0.4904105550      -11.2021268734
 H         1.8222214635        2.0534660318      -10.1658110355
 H         2.9203020361        0.6724135074       -9.6275615227
 Na       -1.3578410731       -0.2876832473        0.3549103188
