155

 C         3.1079831084        5.9802438644        3.6109404710
 C         1.9581455574        4.8869504821        3.6323215122
 C         0.9045919749        4.7204637355        4.8401165876
 C         0.7808068022        3.0816347257        5.1834324427
 C         1.0699577061        2.5147807204        6.6049777303
 C         1.3291853555        5.5214648061        6.1041857552
 C        -0.5199320308        5.0802249883        4.2652209863
 O         1.8508990945        4.1885261124        2.6404253396
 O         0.2541074565        2.3599961692        4.3666732079
 C         2.2939128649        1.5289796661        6.6980712592
 C         3.5651479855        1.8979588957        5.8304276800
 C         4.7138675253        0.7854178078        5.7648432082
 C         4.1282575316       -0.3226031721        4.9644105130
 C         4.3589182971       -0.3814386472        3.5000608537
 O         3.7188878522        3.0155232464        5.2803569139
 O         3.4160032203       -1.1616905947        5.4606517806
 C         5.9687639759        1.4868204378        5.2474556505
 C         4.9242573753        0.1983159773        7.2158874391
 C         3.4507836368       -1.2259589384        2.6993206655
 C         2.2451721944       -0.3865787673        2.3104069715
 C         1.1850884267       -0.9081062254        1.3255236565
 C         1.1550205949       -0.1101850678       -0.0819392405
 C         0.9856296374       -0.8075343319       -1.4681764344
 C         1.4281846880       -2.4563804447        1.0576532244
 C        -0.2390271326       -0.7573438837        1.8683294812
 O         2.1331052649        0.7617264305        2.7640907384
 O         0.9641006639        1.0597154043        0.0133079661
 C         2.2162859776       -0.5853209844       -2.3292411738
 C         3.5341870502       -1.0777263620       -1.6736733019
 C         4.6413987792       -1.5528605617       -2.5715534254
 C         4.0030299617       -3.0428818880       -3.0962438976
 C         3.8869143400       -3.3431461998       -4.5980133051
 O         3.6557242324       -1.1957659702       -0.4666480065
 O         3.6035061751       -3.7087336981       -2.1671356617
 C         4.9562943623       -0.6745063373       -3.7968779338
 C         5.9160989542       -1.8997314888       -1.7376575721
 C         3.1186053803       -4.4722741896       -5.1861449610
 C         1.8602707639       -3.9512749857       -5.9615445096
 C         0.6700427167       -4.9576727193       -6.4298661176
 C        -0.3737477397       -4.9719474250       -5.3137969319
 C        -1.0172076247       -3.5895776569       -4.7513095814
 C         0.0150429981       -4.2811521834       -7.7568540184
 C         1.3054304932       -6.2483266977       -6.7388040434
 O         1.6127229505       -2.7480743087       -5.9921982211
 O        -0.8853125602       -6.0452308305       -5.0648112553
 C        -2.2046255255       -3.9737990402       -3.8677915192
 C        -2.0652165871       -3.4705893215       -2.4596560116
 C        -3.1107546499       -3.8816453716       -1.4103379711
 C        -3.6867468747       -2.5973231813       -0.7786669016
 C        -4.6002823644       -1.6026565251       -1.6994122712
 O        -1.1417936347       -2.7360084653       -2.1467949957
 O        -3.4813814416       -2.2756195437        0.3846060528
 C        -4.1728360401       -4.8318958802       -1.9268398640
 C        -2.3212635718       -4.5814799304       -0.2511788648
 C        -5.8090343909       -0.9813096158       -0.9942733165
 C        -6.7690325609       -0.3879168790       -2.0907805670
 C        -7.8328440445        0.7663037193       -1.7687223742
 C        -6.7926237336        1.8127977814       -1.2472558285
 C        -6.0897221706        2.6911460236       -2.2877067656
 C        -8.4848377382        1.2431795101       -3.0168297059
 C        -8.8095105319        0.2942370045       -0.7010280867
 O        -6.8155469023       -0.8479378138       -3.2004500478
 O        -6.4885152673        1.9209515061       -0.1031929289
 C        -5.2531044266        3.7487503708       -1.5705752788
 C        -4.0061142460        3.0795539175       -0.8552262867
 C        -3.2969476669        3.8347895466        0.3373489160
 C        -1.7460920172        3.4464477403        0.5700644240
 C        -0.7592609645        3.5111568561       -0.5478949951
 O        -3.6432708679        1.9523094957       -1.1122335626
 O        -1.3900817449        3.2541876131        1.7280375705
 C        -3.2443624569        5.4066245695        0.1156224968
 C        -4.1776016345        3.4403248071        1.5006799740
 H         2.9058488852        6.6139856622        2.7825033068
 H         3.1341323973        6.4934510986        4.5801416957
 H         4.0890512986        5.6232033738        3.7034071952
 H         1.3937010731        3.3824829882        7.2806405622
 H         0.1139448951        2.0016780294        6.8646073964
 H         2.3680928866        5.2914713098        6.3378979626
 H         0.6566939999        5.1322784926        6.9174276941
 H         1.1348151150        6.5893531781        5.9044959909
 H        -0.6122043000        4.6900024390        3.3167661655
 H        -1.2511379817        4.6160949235        4.9543387089
 H        -0.6644513019        6.1627854226        4.2552175083
 H         2.7115238029        1.4642766541        7.6998815972
 H         1.9062397689        0.5464676740        6.5974599630
 H         4.2392435596        0.6787964630        3.1212056781
 H         5.4035423564       -0.6565923624        3.3169650824
 H         5.6370463033        2.0837638280        4.4412206981
 H         6.6675454339        0.6824305703        4.9352393883
 H         6.3555463167        2.0192417226        6.0524663130
 H         4.2270898945       -0.5179090291        7.5235946164
 H         5.8301594326       -0.3353064282        7.2309035311
 H         5.0201180163        0.9032139822        8.0417223418
 H         3.2012913760       -2.1032294511        3.3151647629
 H         3.8791071443       -1.6449621095        1.7997446835
 H         0.5844103555       -1.7900591282       -1.3443349608
 H         0.1613364949       -0.2024406683       -1.8104621145
 H         0.4274045265       -2.8876829077        0.6413989775
 H         1.7135212348       -2.9552961895        2.0115925080
 H         2.2168020791       -2.5200683302        0.3287570073
 H        -0.5780516851        0.2373162184        1.6536616850
 H        -0.9501869852       -1.4969557202        1.3907535237
 H        -0.1509363516       -0.8056449245        3.0005086423
 H         1.9610526558       -1.1485395167       -3.3008850828
 H         2.3259223555        0.4431444930       -2.4599751374
 H         3.6632733508       -2.3526968728       -5.0948990709
 H         4.8937269841       -3.6487769106       -4.8160555571
 H         5.6900028948       -1.1876404635       -4.4374696455
 H         5.3205725308        0.2959763898       -3.5147451350
 H         4.1443863012       -0.4618663333       -4.4164942954
 H         6.5558678304       -2.4739945627       -2.2987065267
 H         6.5182481510       -0.9977211414       -1.5832126253
 H         5.5992409948       -2.4474783501       -0.8017925300
 H         2.8698895669       -5.2871201929       -4.4538546927
 H         3.8106325968       -5.0312375651       -5.9132880314
 H        -0.2915347875       -2.9764287527       -4.1103239715
 H        -1.3764155987       -2.9144658470       -5.5567354762
 H        -0.6451002245       -3.4991317629       -7.4732048203
 H        -0.4074677005       -5.2162703525       -8.1576913038
 H         0.9610505961       -4.0209365009       -8.3457426431
 H         0.5115068904       -6.9169614889       -7.0206596808
 H         1.8536949475       -6.2724653106       -7.6675003542
 H         1.7926190973       -6.8196402396       -5.8763125384
 H        -3.2016262296       -3.6096403573       -4.2333014885
 H        -2.2626165315       -5.0208320929       -3.7257520605
 H        -3.9461929976       -0.8032877245       -2.0988809047
 H        -4.9233985709       -2.1797844830       -2.5241629755
 H        -4.7102592200       -4.3848530311       -2.7343197509
 H        -4.7942073101       -5.1753720353       -0.9943860429
 H        -3.8527349501       -5.8009646509       -2.3905277649
 H        -1.6356961583       -3.8316939194        0.1562020482
 H        -3.0935574993       -4.9009823294        0.4372781225
 H        -1.6587111354       -5.3511698200       -0.6520314195
 H        -5.4521564940       -0.2212079217       -0.2767027352
 H        -6.3695114328       -1.7360376399       -0.3606549514
 H        -5.5417092871        2.0235268405       -2.8816866686
 H        -6.7745207340        3.0776751377       -3.0554416410
 H        -7.7069162457        1.2756044833       -3.7751369206
 H        -8.9694335803        2.2618121001       -2.8352969086
 H        -9.2956311154        0.5592317746       -3.2092602200
 H        -9.7897906510        0.7936948345       -0.8130375642
 H        -8.7849510032       -0.8145735667       -0.7379749676
 H        -8.3718499502        0.6543340122        0.2385184754
 H        -4.8300086414        4.3914808416       -2.2497578103
 H        -5.9492421063        4.2671987098       -0.9010786727
 H        -1.1858193422        3.7377588332       -1.4855550147
 H        -0.2050190935        4.4344353394       -0.1839116324
 H        -0.2189127514        2.5573595452       -0.6605868118
 H        -4.2277399116        5.8663355075        0.2570415616
 H        -2.8877254063        5.4707635355       -0.9050404276
 H        -2.4441642463        5.8051519011        0.7465877744
 H        -5.1165900098        3.9079191096        1.2593947701
 H        -4.4376869367        2.3666991723        1.4919430346
 H        -3.7256802192        3.6825092669        2.4025136283
 Na        0.7536205541        2.4332563096        2.0638431247
