155

 C         2.7467811929        6.2155391718        3.7972095030
 C         1.9889511800        4.8568056160        3.6022660735
 C         0.9923214184        4.5896296719        4.8274465815
 C         0.8776216484        3.0187395775        5.1767167880
 C         1.1661301557        2.5240715497        6.6734739495
 C         1.1925723929        5.4652920463        6.0808165373
 C        -0.4091362941        5.0031923345        4.2288514488
 O         1.9022862543        4.2424495575        2.5757720650
 O         0.6193029555        2.2227798948        4.2983373985
 C         2.1682474235        1.3735316326        6.6101210528
 C         3.4472776177        1.8758980973        5.8872378572
 C         4.7297699027        0.8250561717        5.8062200870
 C         4.0520413993       -0.3118082938        4.8748574866
 C         4.3371284562       -0.4440996330        3.4211636515
 O         3.4412322724        2.8936114954        5.2913455058
 O         3.3054486960       -1.1764101785        5.3492447037
 C         5.9266785164        1.5490879092        5.0808134591
 C         5.1588186979        0.3012569094        7.2493885783
 C         3.2671377045       -1.3704285447        2.6809777856
 C         2.0902400057       -0.4892044551        2.2003599468
 C         0.9395928260       -1.1332361791        1.3033681487
 C         1.0535147953       -0.2693124370        0.0392963369
 C         1.0598570498       -0.8421103846       -1.4649101024
 C         1.2127450593       -2.6196430361        1.0058323073
 C        -0.3910827740       -1.0210445601        2.1123453746
 O         1.9985088780        0.6266868604        2.5502381967
 O         1.0287231784        0.9774421650       -0.0035790840
 C         2.1810046657       -0.2360390089       -2.2952205108
 C         3.4695076844       -0.7892944540       -1.6762331562
 C         4.6007197652       -1.5079119358       -2.4768089073
 C         3.9662053146       -2.8829780730       -3.0329444056
 C         3.9578396671       -3.1911424240       -4.5695724068
 O         3.6487457908       -0.8225277123       -0.4641836915
 O         3.5256903579       -3.7654490430       -2.3310368570
 C         4.9841378847       -0.5679418856       -3.6750739598
 C         5.8520918872       -1.7901450703       -1.7061752896
 C         2.8375293992       -4.3150396771       -4.8305882743
 C         1.8188238483       -3.8398277167       -5.8492815304
 C         0.7769894461       -4.8381116146       -6.3801555966
 C        -0.4428724254       -4.8943893142       -5.2097049089
 C        -0.9420153152       -3.5604278407       -4.7715776602
 C         0.3222999598       -4.3052902739       -7.7657462171
 C         1.2998228071       -6.2981266545       -6.5276619668
 O         1.8335186796       -2.6634142369       -6.1754644329
 O        -0.6802145288       -6.0279654482       -4.8218087251
 C        -2.2463741945       -3.6609865418       -3.9801096384
 C        -1.9557791311       -3.4956980962       -2.3812000680
 C        -2.9755353387       -3.9347284657       -1.2212961354
 C        -3.7947588488       -2.6001281695       -0.7692736716
 C        -4.5549654065       -1.9505528966       -1.8926547229
 O        -1.0260374638       -2.7730936106       -2.0968354023
 O        -3.9619002582       -2.3232055427        0.4051850262
 C        -4.1224701537       -4.9355513100       -1.6629907803
 C        -2.0489940239       -4.5333828277       -0.1330715675
 C        -5.7674722647       -1.1514152779       -1.3650383383
 C        -6.7070519972       -0.5243586194       -2.4324763860
 C        -7.5631214046        0.6877874849       -1.8607394453
 C        -6.6516377153        1.7972653044       -1.1549158608
 C        -6.1476623098        2.9571419725       -2.0428200217
 C        -8.5001408638        1.3020660143       -3.0109706723
 C        -8.5194797093        0.0456084681       -0.7777912775
 O        -6.7609398630       -0.9168331693       -3.5528394777
 O        -6.5424080894        1.8692637642        0.0599869022
 C        -5.0231911219        3.8704037602       -1.5310318841
 C        -3.9752134631        3.0422695188       -0.7750579535
 C        -3.2677214978        3.9480532819        0.3888329510
 C        -1.7865388285        3.5385852838        0.4809495061
 C        -0.9004826201        3.8014710381       -0.7751580469
 O        -3.6868577314        1.9054341048       -1.0523750865
 O        -1.3231499207        3.1496252495        1.5315820451
 C        -3.3350401670        5.4559504569        0.0946046005
 C        -3.9705628453        3.5380918926        1.7924194100
 H         1.8858321206        6.9701316335        3.8225325598
 H         3.3901821308        6.2041317688        4.6859954955
 H         3.5311147029        6.4536689546        2.9872989473
 H         1.7694039917        3.2302021570        7.1351051964
 H         0.2155300347        2.3282081276        7.0991346797
 H         2.1340640462        5.2285365498        6.5844855953
 H         0.3426534639        5.3091106310        6.7076148402
 H         1.1938741612        6.4556342299        5.6932102141
 H        -0.9554313095        4.1877639596        3.5702858786
 H        -0.9893380829        5.2984041758        5.1258406470
 H        -0.2335428776        5.9296502478        3.6301850737
 H         2.4422691367        0.9297920794        7.5954193327
 H         1.7835751543        0.4674516579        6.0779036948
 H         4.4367846926        0.5136108148        2.9320073871
 H         5.3286532389       -0.9659575088        3.4265425984
 H         5.6220870265        1.5466396742        4.0137801086
 H         6.7650726517        0.9115492554        5.1697719860
 H         6.1228167596        2.5119296203        5.6492543827
 H         4.5074753503       -0.5165279422        7.6963430725
 H         6.1783271944       -0.1888806177        7.3098616421
 H         5.1642775961        1.1037919737        7.9935082308
 H         3.0508393467       -2.2497403727        3.2704899860
 H         3.6685665860       -1.7799071905        1.7443842841
 H         1.1660483571       -1.9362384183       -1.2698738053
 H         0.0396385316       -0.7958372491       -1.8584416562
 H         0.4702546773       -2.8558996436        0.3038073759
 H         1.1046693010       -3.1341963634        1.9244580762
 H         2.1977300891       -2.7957604805        0.5558523615
 H        -1.2065633506       -0.5344498972        1.4831593566
 H        -0.7251423307       -2.0233196996        2.2425615210
 H        -0.2422221210       -0.4574780567        3.0084640280
 H         2.1320027155       -0.5835210112       -3.2667871949
 H         2.0569298193        0.9298643921       -2.1505016887
 H         3.5933306006       -2.3249089059       -5.0794897424
 H         4.9628139587       -3.4818595701       -4.9744877525
 H         5.8591259385       -0.9436139929       -4.1633425295
 H         5.2371762965        0.4647225663       -3.3647401546
 H         4.2408628231       -0.5164447381       -4.5183321635
 H         6.6172741882       -2.1753158811       -2.4097540135
 H         6.2545458911       -0.9395558895       -1.2464861962
 H         5.6116556565       -2.5476490753       -1.0546679394
 H         2.2741389630       -4.6684838587       -3.9847551173
 H         3.2300024691       -5.2589507289       -5.1177213371
 H        -0.0804411524       -3.1736096226       -4.1996621028
 H        -1.0556938817       -2.8345828462       -5.6034999186
 H        -0.1505358861       -3.2863209709       -7.5991013033
 H        -0.2503124804       -5.0755410745       -8.1338543858
 H         1.2099062923       -4.0058682547       -8.2516612771
 H         0.6565500222       -7.0562110909       -7.0275276319
 H         2.1981692351       -6.3044527216       -7.1434561798
 H         1.4906253569       -6.7668459246       -5.6138210807
 H        -2.9515629720       -2.8975305660       -4.2146769654
 H        -2.6697788268       -4.7010735586       -4.1225288927
 H        -3.7395498959       -1.2784666716       -2.3195581203
 H        -4.8352414043       -2.7730868782       -2.6726240524
 H        -4.5738073227       -4.7736685166       -2.6943103782
 H        -4.8503138464       -4.9920002872       -0.9459197183
 H        -3.7313445066       -5.8994124672       -1.8122228296
 H        -1.8110461153       -3.8203161018        0.6289815633
 H        -2.5291687385       -5.4103603229        0.2702403581
 H        -1.1456203709       -4.8066872252       -0.6193416092
 H        -5.4030629255       -0.4192253991       -0.6247370452
 H        -6.3902722559       -1.7709118142       -0.7356160688
 H        -5.9348485854        2.4908505009       -3.0426964671
 H        -7.0251040058        3.5440132917       -2.2869180931
 H        -7.8732913943        1.7338367960       -3.7891494601
 H        -9.2593456823        1.8941980349       -2.6578823602
 H        -9.0137008695        0.4113438997       -3.4146465107
 H        -9.0038999128        0.8747753589       -0.3065568165
 H        -9.1878915481       -0.5689674852       -1.3549399368
 H        -8.0186387493       -0.6172144859       -0.0611333689
 H        -4.4479235436        4.1984253807       -2.5016964407
 H        -5.5056830763        4.6625683702       -0.9655111743
 H        -1.3735422002        3.1903585870       -1.5793602597
 H        -0.8251439309        4.7937267778       -1.0653306528
 H        -0.0333204655        3.2415442715       -0.6159583331
 H        -4.3452172958        5.5956077145        0.4762614353
 H        -3.2672011696        5.7110864455       -0.9760107321
 H        -2.5631440302        5.9662298308        0.6544137096
 H        -5.0429973581        3.7976130078        1.6207920360
 H        -3.8946129548        2.4697972537        2.0133787614
 H        -3.4800121000        4.1436543570        2.6610454059
 Na        0.6720802605        2.3148287407        1.9763818480
