155

 C         2.4655750711        5.4312585631        3.9066388068
 C         1.2358758185        4.4631226440        3.8855053527
 C         0.4642690461        4.0895610155        5.1569786241
 C         0.8240982781        2.5097806349        5.4911857198
 C         1.4470242728        2.0720536832        6.9229639998
 C         0.9937198697        5.0105397925        6.2917674098
 C        -1.0391290220        4.3761112537        4.8349089363
 O         0.8700247253        3.9624102181        2.7977452727
 O         0.7025789226        1.7842159053        4.5621530585
 C         2.4655194248        0.9545691938        6.5856773276
 C         3.5662543080        1.5985976600        5.7351416218
 C         4.6268158644        0.7020425307        5.0870050619
 C         3.9273381839       -0.4316828161        4.2409240622
 C         3.6737682530       -0.2307931107        2.7167096551
 O         3.4246038345        2.7279874769        5.3657713950
 O         3.4276846830       -1.3459390646        4.8063985299
 C         5.6366790632        1.5545203695        4.3197437319
 C         5.4062785002       -0.0225279715        6.1804032616
 C         2.8036275893       -1.4215219454        2.0139246882
 C         1.2634416715       -1.1196020317        1.8523720912
 C         0.6438877120       -1.0618325151        0.3828460579
 C         1.2326516281        0.2273726814       -0.4013818360
 C         1.7195993716        0.0728843207       -1.8437847891
 C         1.0086875047       -2.3058202352       -0.3519162741
 C        -0.9239248991       -0.8248955661        0.3256417487
 O         0.6009747086       -0.7220466548        2.8222518652
 O         1.1462478871        1.3580794696        0.0533854911
 C         2.7859028950        1.0481083997       -2.2944909592
 C         3.9806320196        0.6924497165       -1.4775516055
 C         5.2803139343       -0.0406343212       -2.1631093087
 C         4.6607613281       -1.4980463446       -2.3918508176
 C         4.6824337739       -2.1540547414       -3.7728314355
 O         3.9663915632        0.9042494966       -0.3063970576
 O         4.1945664053       -1.9600987461       -1.3589630822
 C         5.7129737504        0.5912727156       -3.4987807534
 C         6.4162675916       -0.1739017985       -1.1641656994
 C         3.8667468718       -3.6582085118       -3.8313427928
 C         2.5744738123       -3.5822926344       -4.6850117394
 C         1.7883796820       -4.9723922464       -5.0162738941
 C         0.2620980732       -4.8896697603       -4.4431712048
 C        -0.7276044972       -3.7896063043       -4.9599869299
 C         1.6253618274       -5.0955951530       -6.6032156469
 C         2.4301731015       -6.3320534005       -4.5186952529
 O         2.0782918191       -2.5384464231       -4.9755718198
 O        -0.1956322321       -5.6730710127       -3.6342402376
 C        -2.1120132238       -4.1122565305       -4.4014195105
 C        -2.1411617364       -4.1946320382       -2.8502817402
 C        -3.3610292710       -4.9757791001       -2.1911769030
 C        -4.2727501574       -3.8792114258       -1.4986297928
 C        -4.2599702618       -2.4442745219       -2.0235850236
 O        -1.5554301227       -3.4046559726       -2.1625473055
 O        -5.1061695075       -4.2162148618       -0.6582209997
 C        -4.1928471587       -5.6479337848       -3.2552481329
 C        -2.8972386590       -5.9318387896       -1.0371297974
 C        -5.7342006902       -2.0029500228       -1.7740289890
 C        -6.0705230830       -0.6427523756       -2.4751590417
 C        -7.3888851447        0.2471874525       -2.2333731062
 C        -7.0498542721        1.6392111627       -1.4549744677
 C        -6.1875719468        2.6412072803       -2.1592698081
 C        -7.8765828495        0.6571999610       -3.6378750862
 C        -8.4749622907       -0.5862096498       -1.5207017559
 O        -5.2786142154       -0.2429257662       -3.3599175394
 O        -7.4992046711        1.8400206829       -0.3339622333
 C        -5.6856597085        3.7569675234       -1.1951009973
 C        -4.1512928228        3.6831717177       -0.7514050097
 C        -3.7154191103        4.3083337056        0.6786389885
 C        -2.2122241831        4.0378180539        0.9663350030
 C        -1.0812335936        4.6965463242        0.1505481256
 O        -3.2984479870        3.2893103765       -1.4714370945
 O        -1.8887333134        3.2176501245        1.8145462715
 C        -3.9905551160        5.7710334550        0.8455518598
 C        -4.5361264557        3.5567514938        1.8491798270
 H         2.1277796350        6.4209614936        3.9743631157
 H         3.2290584038        5.3067546884        4.6793287106
 H         3.1004120135        5.4673178138        3.0863892373
 H         1.9237211454        3.0025561804        7.2543707503
 H         0.7454559629        1.5360005954        7.5979382469
 H         2.0454744030        4.7941063209        6.5449566889
 H         0.3808293973        5.0718769288        7.2173058890
 H         0.9875055388        6.0343362303        5.9300896196
 H        -1.3726481019        3.8214349291        4.0017001170
 H        -1.6537306537        4.0976504626        5.6241280978
 H        -1.2555845705        5.3879822387        4.6608895832
 H         2.7970858622        0.5494321840        7.5063049017
 H         1.9614044041        0.2229035124        5.8860190612
 H         3.1963079063        0.7600478946        2.6048735374
 H         4.6523613107       -0.1490955049        2.1938114508
 H         5.2648766119        1.8213375516        3.3336186647
 H         6.4980110001        0.9438290670        4.0921573783
 H         5.8254064224        2.5526514265        4.7273204643
 H         4.7360472580       -0.3195035366        7.0319067309
 H         5.9923973430       -0.8346303691        5.6889288444
 H         6.2193238037        0.6807437305        6.4378434934
 H         3.0010826383       -2.2547986236        2.6989821896
 H         3.1984021362       -1.6538735972        0.9987014021
 H         2.0370132327       -0.9733566429       -2.1646711401
 H         0.9679835310        0.2496916423       -2.5363499864
 H         0.3643019190       -2.6453796321       -1.2281943912
 H         0.9496834581       -3.0972100066        0.3211925076
 H         1.9988178809       -2.3062750273       -0.7011432004
 H        -1.1021005542       -0.2138762139       -0.4971594762
 H        -1.3695735758       -1.7765862215        0.1030264041
 H        -1.4404523941       -0.2874161943        1.0657997450
 H         2.9548303862        0.9407434009       -3.3192600224
 H         2.4624395010        2.1431085120       -2.1093552115
 H         4.1600251547       -1.3723640097       -4.3694640096
 H         5.5942604742       -2.2134095115       -4.3326482115
 H         6.3343924821       -0.1390416507       -4.0065055960
 H         6.2422808532        1.5634758361       -3.3870683951
 H         4.8007202341        0.8433497859       -4.0694247920
 H         7.1411313468       -0.9822031724       -1.5137530218
 H         6.8574766942        0.8073680947       -0.7743574041
 H         5.9753314378       -0.5972616452       -0.2312405918
 H         3.5532168015       -4.0584532813       -2.8645730715
 H         4.5549059092       -4.4498872876       -4.2456348675
 H        -0.3460492701       -2.8394670723       -4.6668968965
 H        -0.8596906176       -3.9551639906       -6.0357208840
 H         1.0138592785       -4.3507551446       -6.8786964484
 H         1.2280968446       -6.0659668763       -6.9569805650
 H         2.6425907792       -4.9373665503       -7.0423335367
 H         1.8204623192       -7.2142329218       -4.8033773157
 H         3.4173085079       -6.5624565620       -4.8238604762
 H         2.5218060287       -6.2360202647       -3.4310428295
 H        -2.8744962560       -3.4060859064       -4.6170673460
 H        -2.4097688676       -5.0022517599       -4.9875331572
 H        -3.7025796754       -1.8682056584       -1.2858640668
 H        -4.0243635528       -2.3905128843       -3.0856426599
 H        -4.4844050849       -5.0585463723       -4.1002593424
 H        -5.2154355866       -5.9125058988       -2.7052058139
 H        -3.8262588836       -6.6916059715       -3.4867521784
 H        -1.9175715249       -5.6573977164       -0.7294464511
 H        -3.5386094931       -5.9748842701       -0.1724134362
 H        -2.9366218311       -6.9063094315       -1.4213958559
 H        -5.8691423527       -1.8636227951       -0.7335862772
 H        -6.4396695106       -2.7883510766       -1.9843273239
 H        -5.4579616854        2.0969910911       -2.7325664655
 H        -6.7396100207        3.1133945776       -2.8822462944
 H        -7.0841980138        1.2082291728       -4.1588256752
 H        -8.7824321067        1.1738347520       -3.6051751723
 H        -8.0078299728       -0.2324701203       -4.2907926823
 H        -9.4823772089       -0.3278744213       -1.8243823901
 H        -8.4208229520       -1.6694163059       -1.6058667075
 H        -8.4838891703       -0.3838943577       -0.4310337802
 H        -5.7569822264        4.6992479891       -1.7579243164
 H        -6.3956811000        3.8146275025       -0.4235694830
 H        -1.0165485261        4.3585608297       -0.8814325993
 H        -1.0869249743        5.8544787835        0.1805817483
 H        -0.0236418659        4.4206892104        0.5077743244
 H        -5.0824251545        5.9814146809        0.8534851292
 H        -3.6270000373        6.4036241058       -0.0055250925
 H        -3.5847926039        6.1922116550        1.7776747020
 H        -5.5438515422        3.8841509158        1.8031558323
 H        -4.5277986602        2.4885956218        1.5995371164
 H        -4.2635246246        3.8298566859        2.8686599695
 Na        0.0958702931        1.8290159418        2.2639726201
