155

 C         2.5579709843        5.3238974704        3.9924331952
 C         1.3857431300        4.3105810231        3.7725539556
 C         0.5944396145        3.9957868169        5.0577934737
 C         0.7043146980        2.4890839843        5.3891833675
 C         1.4375401782        2.0532561217        6.6684142382
 C         0.8670577479        5.1227194589        6.2739849289
 C        -0.9446832091        4.2758107902        4.7624733513
 O         1.3445434592        3.7551226876        2.7124729148
 O         0.0906586388        1.7384448139        4.6339833798
 C         2.2580412092        0.8381248886        6.3688078597
 C         3.3444120932        1.1536616335        5.2923100448
 C         4.4413845782        0.1097639329        4.7780448469
 C         3.8332294589       -0.9264583488        3.7720354708
 C         2.8476414502       -0.2914946635        2.7863617686
 O         3.3692939560        2.2388847009        4.8226357612
 O         4.1138045389       -2.1230354097        3.7641870399
 C         5.5679028989        0.8072508669        4.1062003868
 C         5.0957337289       -0.7703964634        5.8917799986
 C         1.9900927502       -1.3166386427        1.9792027274
 C         0.6336975502       -0.7853644196        1.4759446556
 C         0.2437175085       -0.6579699548        0.0404194343
 C         0.9686398564        0.6859241559       -0.5202114451
 C         1.5333577313        0.7433806585       -1.9721653015
 C         0.5372670925       -1.9314175829       -0.7989685960
 C        -1.2680149215       -0.3089986690       -0.0144420479
 O        -0.1032618274       -0.2552190733        2.2815645777
 O         1.1042671476        1.5834485183        0.2683062168
 C         2.6249029424        1.8386861257       -2.1809158363
 C         3.8949422195        1.2997364828       -1.4286354479
 C         4.9204194123        0.6581508577       -2.4283379831
 C         4.6582341318       -0.9162701344       -2.2746864409
 C         5.1058322735       -1.9434549851       -3.2888584250
 O         4.1015036761        1.2406111250       -0.1999469815
 O         4.2512323710       -1.3701869803       -1.1824157584
 C         4.7432246955        1.0147954074       -3.8829742453
 C         6.3507659965        1.0385285287       -1.9340487603
 C         4.7010090568       -3.3838196004       -2.8786065257
 C         3.2899608488       -3.7335937097       -3.1237910976
 C         2.9929716176       -5.0253396942       -3.9743822827
 C         1.5348100271       -5.4165959123       -3.7896719309
 C         0.3878448347       -4.3425329118       -4.0242503529
 C         3.2415277131       -4.5591048083       -5.5000067752
 C         4.0178601458       -6.1099982521       -3.6250187217
 O         2.4056717043       -2.9733268058       -2.8153181685
 O         1.2830604314       -6.5587864649       -3.4473764350
 C        -0.9610526635       -5.0024616991       -3.7884286669
 C        -2.0207584314       -4.1236485406       -3.2299361895
 C        -3.4736070490       -4.8229630883       -2.9044166047
 C        -4.3523254886       -3.7792834028       -2.2287112771
 C        -4.8601213125       -2.5925252295       -3.0627439125
 O        -1.8943414969       -2.9334769813       -3.0620983969
 O        -4.6678479186       -3.8738243075       -1.0753641721
 C        -4.0271346205       -5.4130839854       -4.2387091046
 C        -3.3070797485       -6.0486022616       -1.9517276368
 C        -5.8515587088       -1.8946027775       -2.2748068165
 C        -6.1836268202       -0.4625756232       -2.8855633703
 C        -7.3398241041        0.3467056709       -2.2257044275
 C        -6.7551012646        1.5638466264       -1.4027385183
 C        -6.2211346388        2.6959430133       -2.2381306302
 C        -8.3318774183        0.7818698124       -3.3246789974
 C        -8.1833602308       -0.4499614727       -1.2711914954
 O        -5.4419145935        0.0525080287       -3.7481662288
 O        -6.7869146337        1.6189702763       -0.1986217824
 C        -5.5532119565        3.8458147371       -1.3480536216
 C        -4.4397276277        3.3359815857       -0.4297779621
 C        -4.3307225674        3.9593328905        1.0667613224
 C        -2.8957684175        3.6542092586        1.3429148615
 C        -1.8833791469        4.5922103183        0.7160881931
 O        -3.6075678212        2.5122417774       -0.7053879655
 O        -2.5250750329        2.6306044333        1.9125672371
 C        -4.6749192618        5.3887861158        1.1432352458
 C        -5.2647991334        3.0094785904        1.9386674308
 H         2.4926500809        6.2447115160        4.6120131891
 H         3.3637064777        4.7991354048        4.5877000981
 H         2.8831377904        5.7271249280        2.9712372443
 H         2.0639390805        2.8990741162        7.0249528874
 H         0.6961164321        1.9063641687        7.5211477143
 H         1.8760723531        4.9150761869        6.6634910347
 H         0.0905441708        5.0385434282        7.0303750479
 H         0.7742112726        6.0288889562        5.6637161267
 H        -1.2271422198        4.0339016662        3.6694896466
 H        -1.4806251864        3.6435494610        5.4427617191
 H        -1.2056641193        5.3422403840        5.0804099106
 H         2.5539353412        0.1505405249        7.1411633737
 H         1.5868762294        0.0128144211        5.8388901886
 H         2.2032277161        0.3418562108        3.3927940532
 H         3.4218288352        0.3428422696        2.1415403173
 H         5.3779462570        1.5444275558        3.3391378088
 H         6.3102902029        0.1693594221        3.5875106940
 H         6.2155024809        1.4123867323        4.7758902244
 H         4.3636232244       -1.3726123430        6.3836348742
 H         5.8830922960       -1.3426228429        5.4598853507
 H         5.5651688337       -0.0901953494        6.5286887019
 H         1.8615164619       -2.1888357849        2.6687473918
 H         2.5751472517       -1.7553168698        1.1752117135
 H         1.9075309218       -0.2542311412       -2.1912821441
 H         0.7532853525        1.1232882460       -2.6073532573
 H         0.6382633237       -1.6857355477       -1.8534428582
 H        -0.2143550363       -2.5907859935       -0.6271730595
 H         1.4908985210       -2.2312512090       -0.5111650867
 H        -1.6857853672       -0.6724171410       -0.9772622452
 H        -1.7816406887       -0.7486719866        0.9221679314
 H        -1.3558316417        0.8155177339        0.0521362074
 H         2.8208563836        2.0684309064       -3.2165203028
 H         2.2140798212        2.7568121652       -1.6940886738
 H         4.4645950479       -1.8090901993       -4.1367639552
 H         6.1664744803       -1.8764177699       -3.4586847335
 H         5.3842756281        0.3704770237       -4.4477841689
 H         4.9009104432        2.0304807660       -4.1907144797
 H         3.7227783402        0.7060835841       -4.1974185990
 H         7.1863237202        0.3077823495       -2.3027344272
 H         6.6074520895        2.0766003912       -2.2236127860
 H         6.3811593404        0.9765347093       -0.8732313785
 H         5.0585636669       -3.5868384279       -1.8564525024
 H         5.1960807776       -4.1082936615       -3.5077438026
 H         0.4930260121       -3.5850227316       -3.2573224398
 H         0.3984255379       -3.7136108867       -4.8685266492
 H         2.5016941308       -3.8418440421       -5.8168944059
 H         3.0324217821       -5.4251151159       -6.1552084777
 H         4.1386229477       -4.1295959881       -5.8003380273
 H         3.6677184898       -6.8584318019       -4.3553816756
 H         5.0183112116       -5.8536302173       -3.9142621493
 H         3.9877218324       -6.4895026172       -2.5988293179
 H        -1.2887017730       -5.3156210391       -4.8277279202
 H        -0.8643780966       -5.8580468755       -3.2050944500
 H        -4.1454690958       -1.9105784862       -3.4714466774
 H        -5.1411068889       -3.0225988411       -4.0131447215
 H        -4.0457684360       -4.6540922239       -4.9688754296
 H        -5.1468644641       -5.6214294139       -4.2034908958
 H        -3.4446786867       -6.4084074199       -4.4123261465
 H        -3.0356517664       -5.6743193656       -0.9436185712
 H        -4.2144125036       -6.7182944624       -1.9376493250
 H        -2.4446648648       -6.7208370136       -2.1549980223
 H        -5.4206725042       -1.6953408332       -1.3332648029
 H        -6.7371019318       -2.4654163196       -2.1630003550
 H        -5.4141982247        2.2901221720       -2.8400889172
 H        -6.9265693018        3.1043313648       -2.8184130649
 H        -7.7221718987        1.2185164123       -4.1752027106
 H        -9.1373030198        1.3599480566       -2.9390635127
 H        -8.7859877436       -0.1505563752       -3.7714070602
 H        -9.1989279096       -0.1735163068       -1.5321949330
 H        -7.9735961026       -1.5016972964       -1.4526322250
 H        -7.8898037287       -0.3088655900       -0.1984396525
 H        -5.1271774285        4.6190946914       -1.9117745651
 H        -6.3390184337        4.3799170702       -0.7658432597
 H        -2.1358018723        5.0636652108       -0.1647581717
 H        -1.8381100240        5.5244323659        1.3170479875
 H        -0.8759449914        4.1542204664        0.7824383733
 H        -5.6254114629        5.7060312100        0.8211847811
 H        -4.0175762827        6.0006900230        0.5419203643
 H        -4.6035901814        5.7804280712        2.1712174535
 H        -6.2945837318        2.8451132615        1.7528471057
 H        -4.6498784391        2.0708264894        1.9584934836
 H        -5.3538816349        3.4111566917        2.9780284919
 Na       -0.1960587227        1.9790241750        2.4502705267
