155

 C         2.7362633091        4.9197061893        3.5258641986
 C         1.4013157588        4.3016087580        3.7877233786
 C         0.8028755320        4.1217285805        5.2776014692
 C         1.0239937294        2.5450064552        5.6483983609
 C         2.0423225933        2.0641060648        6.7350764065
 C         1.6494194531        4.9501424956        6.2623542215
 C        -0.8302791139        4.3088346782        5.2830809866
 O         0.6724368666        3.9759597177        2.8704008813
 O         0.3613726425        1.6973184790        5.0428546236
 C         2.5600231587        0.6179370141        6.4562636081
 C         3.2977806793        0.8434240752        5.1728028553
 C         4.2769498331       -0.2376732942        4.5050702746
 C         3.3699602771       -1.1136964009        3.3224621514
 C         2.7635684632       -0.2987862067        2.1311851866
 O         3.0799375676        1.8493248654        4.5400810624
 O         3.5004862700       -2.2865781833        3.3858188654
 C         5.4131636545        0.4981328048        3.8169619674
 C         4.6813540341       -1.2946089514        5.5618248136
 C         1.7794033054       -1.1689835587        1.3671657634
 C         0.3432132369       -0.6356472765        1.3198317862
 C        -0.3702909044       -0.4249330595        0.0227162739
 C         0.3839440897        0.9283204915       -0.3761833020
 C         1.3000614377        0.7479842873       -1.5185732345
 C        -0.3653331729       -1.6109920919       -0.9929184217
 C        -1.8681906750       -0.1011316501        0.2672109227
 O        -0.1812452605       -0.3646465894        2.3992138094
 O         0.2067295795        1.9885711141        0.2447547811
 C         2.2872652135        2.0275556894       -1.5507441105
 C         3.7076394671        1.6921377751       -1.1606805520
 C         4.6518388496        0.9007219490       -2.1594344590
 C         4.6676827323       -0.6106496090       -1.6748062523
 C         5.4576285184       -1.5804904757       -2.6021155177
 O         4.1789723287        2.0237251226       -0.1310698474
 O         3.9932294512       -1.1265779039       -0.8315185307
 C         4.1153109768        0.9267324118       -3.6504836779
 C         6.0596423959        1.5200006642       -1.8879769972
 C         5.1756877998       -3.1518171387       -2.3995917984
 C         3.7988725902       -3.4528622304       -3.1254018716
 C         3.5586020634       -4.9130739176       -3.6757247752
 C         2.1353720004       -5.4515267569       -3.0223928768
 C         0.9738874911       -4.6361483839       -3.5433189082
 C         3.5156013574       -4.7575738888       -5.1596956213
 C         4.7946496036       -5.9122015113       -3.1773345081
 O         2.9172722178       -2.5980660286       -3.3279357978
 O         2.0746135896       -6.2263144737       -2.0930027297
 C        -0.3916534539       -5.2329530339       -2.9859673695
 C        -1.6009109539       -4.2754064686       -3.3903402383
 C        -3.1307575345       -4.6649439550       -3.3577841735
 C        -4.0509371389       -3.7095433409       -2.5951898772
 C        -4.6078866229       -2.3857638055       -3.2687571009
 O        -1.3482045184       -3.1624918566       -3.8839800999
 O        -4.5567774886       -4.1123539013       -1.5416790641
 C        -3.6399456835       -4.5350087093       -4.8818311616
 C        -3.4743865714       -6.1367670112       -2.9893991632
 C        -5.7734668097       -1.8361046429       -2.3666085920
 C        -6.4119909774       -0.5892414626       -3.0698802292
 C        -7.6278987637        0.1538074486       -2.3300708839
 C        -6.9052683321        1.3335100887       -1.4584021381
 C        -6.1857137540        2.3811199450       -2.2154838775
 C        -8.6238595329        0.9401735354       -3.3475288181
 C        -8.5407720622       -0.7455158564       -1.4187816266
 O        -5.9987671228       -0.1609702568       -4.1030811283
 O        -7.1174505587        1.4341631812       -0.2730249158
 C        -5.7822875131        3.5052872759       -1.3553978861
 C        -4.4839256293        3.2310560399       -0.6285044403
 C        -4.1865376490        3.5770953619        0.8644949876
 C        -2.7074797782        3.5019333078        1.3313094351
 C        -1.6835176151        4.4465474154        0.6909173386
 O        -3.6089666158        2.5987555168       -1.2532419414
 O        -2.3990907258        2.7654080469        2.2497285467
 C        -4.7961156880        4.9770791086        1.1734054818
 C        -4.9093312596        2.3575057378        1.5651304027
 H         2.8282773152        5.8665209579        4.0736486462
 H         3.5470198941        4.3289290987        3.8677178910
 H         2.9355976227        5.0432216400        2.5035099152
 H         2.9723625885        2.6800575004        6.7448337396
 H         1.4815935973        2.0344129604        7.6745009095
 H         2.6307238465        4.8212475842        5.8721844725
 H         1.5015778839        4.6013322137        7.3179222745
 H         1.2845997567        5.9673365516        6.2126006986
 H        -1.2308704868        3.9083821528        4.4070582800
 H        -1.2767576239        3.7027539715        6.1074241903
 H        -1.0938758587        5.3271535017        5.3217887385
 H         3.2550050296        0.4014084125        7.2524080595
 H         1.7698183854       -0.0573699891        6.2847414435
 H         2.3172030844        0.5850680330        2.6247641983
 H         3.6201170351        0.0993164388        1.5981548244
 H         5.0761882272        1.2988250381        3.2139816617
 H         6.1091666753        0.0062501021        3.0796498145
 H         6.1333252821        1.0230233272        4.4157360173
 H         3.9071185974       -1.5726052935        6.3304834567
 H         4.9944203295       -2.2436420196        5.0807831290
 H         5.5569127501       -0.8557498802        6.1488831725
 H         1.7470214217       -2.0190964268        2.0549355398
 H         2.1270412076       -1.5543338502        0.4075353078
 H         1.8882859350       -0.1992507465       -1.3144824048
 H         0.8347167004        0.6018099370       -2.4101933049
 H        -1.0234549704       -1.4635698810       -1.7947773609
 H        -0.6765132172       -2.4767660756       -0.3253112160
 H         0.7087401408       -1.9199609536       -1.2182132935
 H        -2.1912028093       -0.4321994264        1.2381647718
 H        -2.0560645506        0.9394541557        0.1361794281
 H        -2.4115930825       -0.5951874369       -0.4805864368
 H         2.3413602816        2.4394184047       -2.5346373495
 H         1.6479657844        2.8049217232       -0.9771608627
 H         5.4511328169       -1.1980250369       -3.6512199352
 H         6.4929288655       -1.4414063455       -2.2636089544
 H         4.8967474804        0.8009071304       -4.3663552113
 H         3.6694483907        1.9068309422       -3.9528658947
 H         3.4466986842        0.0977406776       -3.8381626806
 H         6.7186545664        1.0337921286       -2.4653289122
 H         6.1116679191        2.5563354154       -2.1201297387
 H         6.3653737144        1.3473156578       -0.8385310616
 H         5.0421101482       -3.2758796292       -1.3214617096
 H         5.9838165072       -3.8362911382       -2.7544206062
 H         1.1921184217       -3.5541203300       -3.2894432970
 H         0.8316295674       -4.6156372947       -4.6340130112
 H         3.9095616764       -3.9067229139       -5.8416657139
 H         2.5068923178       -4.7287662044       -5.6269883837
 H         3.9692546256       -5.6476370600       -5.5566257380
 H         4.3183896325       -6.8887493438       -3.2493896596
 H         5.6318021969       -5.8669222165       -3.8508625710
 H         5.0439687479       -5.6667747022       -2.0733210227
 H        -0.4400412846       -6.3637292074       -3.2989739148
 H        -0.4438863769       -5.2734175160       -1.9109046733
 H        -3.8531556771       -1.6343230961       -3.3536617517
 H        -5.0979701625       -2.7200495586       -4.1774221803
 H        -3.4182118503       -3.4720335254       -5.2315392305
 H        -4.6614677123       -4.7724053866       -4.8238315864
 H        -3.2048441041       -5.0708290257       -5.6744195870
 H        -2.9338728205       -6.4576458053       -2.1363710915
 H        -4.4835166766       -6.2829813420       -2.6584726733
 H        -3.1972265428       -6.8051100840       -3.7568344057
 H        -5.5515229190       -1.4936582377       -1.3111277582
 H        -6.6898432262       -2.5344085659       -2.2622800618
 H        -5.3069413882        1.9483370169       -2.6894495653
 H        -6.8240503497        2.7884556873       -2.9824691155
 H        -8.0132822105        1.3793552489       -4.1036190895
 H        -9.0499451067        1.7681070955       -2.8190017776
 H        -9.3631035887        0.2681621370       -3.8046745489
 H        -9.5590966633       -0.4854657865       -1.5737233326
 H        -8.5262466079       -1.7131041016       -1.8772280111
 H        -8.3204269131       -0.6119573922       -0.3650904745
 H        -5.6786351346        4.4686065862       -1.8944563045
 H        -6.7035363365        3.7709956449       -0.6956765777
 H        -1.2509744299        4.0547175544       -0.2707628870
 H        -2.1949468083        5.3803900347        0.4510018113
 H        -0.8548970374        4.7352575821        1.2234414968
 H        -5.8876586048        5.0708103782        0.8696191019
 H        -4.1994255934        5.7995958779        0.7712170404
 H        -4.7432852356        5.2364705377        2.2488657640
 H        -5.9466196931        2.2396082294        1.1915915472
 H        -4.4389102080        1.3796197354        1.4591348459
 H        -4.8754319395        2.5223664059        2.5801542192
 Na       -0.2207058900        1.9893839387        2.6026060715
