155

 C         3.1347411164        4.9715168861        3.7964771227
 C         1.9221983703        4.2079052773        3.9101853750
 C         1.4007672342        3.9898493327        5.3500239611
 C         1.2298063971        2.3838974691        5.4879494100
 C         2.0133572768        1.5534786254        6.5333580408
 C         2.0976224165        4.7240940423        6.4201023973
 C        -0.0654864607        4.3923069966        5.3277422850
 O         1.2852745738        3.8379347516        2.9380906850
 O         0.3930961132        1.8322741208        4.8220756969
 C         2.5634925900        0.2221914849        5.8694845745
 C         3.6346739163        0.5154927324        4.8185447363
 C         4.3825127981       -0.6469942782        4.0670381189
 C         3.1656164745       -1.4294659313        3.5604547097
 C         2.6034941682       -1.1168689830        2.1309019002
 O         3.9717800759        1.6713348234        4.5137690246
 O         2.5980785158       -2.2045393514        4.3058245505
 C         5.2089883060       -0.1039544687        2.9494680909
 C         5.0931185264       -1.5577811213        5.0921882785
 C         1.2976213547       -1.8670512888        1.8239108130
 C         0.1955727099       -0.7632117867        1.6258316187
 C        -0.4004436600       -0.3737404778        0.2954096996
 C         0.2443169560        1.0360052039       -0.1486851776
 C         1.0385172567        1.1103256791       -1.4294527936
 C        -0.2997860605       -1.4564510145       -0.7011021177
 C        -1.8847489193       -0.0440121681        0.4601198608
 O        -0.1053144550       -0.1441686011        2.5964114273
 O         0.1634553181        2.0188997445        0.5964816061
 C         2.0532733911        2.3162096148       -1.4625813242
 C         3.4527372729        1.9298821317       -1.0454438888
 C         4.2844556930        1.0083668431       -2.0211413976
 C         4.2947140341       -0.5650689363       -1.6354572656
 C         5.5338759554       -1.3311793653       -1.8179752534
 O         3.8789171471        2.3640252200        0.0120103553
 O         3.4014284775       -0.9555684429       -0.8985233332
 C         3.5872052670        0.9871132454       -3.4343239986
 C         5.6738536278        1.6692784537       -2.0578808282
 C         5.3946575039       -2.8621232976       -2.1278991852
 C         4.4080174603       -3.2803927229       -3.1312634197
 C         3.6889825251       -4.7526936020       -3.0235923276
 C         2.2683917797       -4.5293694934       -2.4063992654
 C         1.2055831987       -3.7664382299       -3.2083383299
 C         3.5420441353       -5.3195538474       -4.4709555775
 C         4.5313973002       -5.7805507236       -2.2103533026
 O         3.8956640333       -2.5742069799       -3.9413556193
 O         1.9656020779       -4.7834805004       -1.2486672747
 C        -0.0996997937       -4.5196356008       -3.1256700056
 C        -1.3788734614       -3.6850821336       -3.7485520540
 C        -2.6348200493       -4.4817741492       -3.9584911168
 C        -3.7598044788       -3.9190970765       -3.0864143560
 C        -4.6943974867       -2.7729636148       -3.7276078788
 O        -1.3227791225       -2.5067126174       -3.9970593892
 O        -3.9948962324       -4.3647230608       -2.0217485499
 C        -2.9969753274       -4.3032405214       -5.4818204528
 C        -2.5087781959       -5.9904195700       -3.5095784134
 C        -5.4420870614       -1.9653112178       -2.6950214975
 C        -6.2277706622       -0.8398477684       -3.3221199441
 C        -7.5791527734       -0.3486804868       -2.6663697605
 C        -7.0904742169        0.9717458045       -1.8395573004
 C        -6.6057969982        2.2691549546       -2.5348927961
 C        -8.4999611050        0.1525452465       -3.7673243561
 C        -8.3350743881       -1.3133239011       -1.7179863411
 O        -5.8061941879       -0.1961817725       -4.2642990752
 O        -7.1193605677        0.8720584168       -0.6038213718
 C        -6.1438345250        3.3639516246       -1.4944117173
 C        -4.8711619834        2.9494799116       -0.6003991836
 C        -4.8464780144        3.5302907573        0.9129887186
 C        -3.3529982466        3.5697732180        1.4254335981
 C        -2.5085702046        4.6470376972        0.7765015348
 O        -3.9200484733        2.3760618634       -1.0039355988
 O        -2.9850959271        2.8267398670        2.2967329867
 C        -5.3079093047        5.0518854537        0.7846650698
 C        -5.6788206086        2.5769792106        1.7266900129
 H         2.9711285746        5.9918928856        4.0911888727
 H         3.9240620392        4.5378056907        4.4282641155
 H         3.6495993098        4.9570261381        2.8210834273
 H         2.8602343161        2.0630656405        7.0121674087
 H         1.3941051306        1.2820382035        7.3537527676
 H         3.1498845917        4.4981740366        6.5359709362
 H         1.5463299791        4.5013537375        7.3804922318
 H         2.0640353855        5.7754903892        6.1653105079
 H        -0.5801480520        4.0603232014        4.3794231787
 H        -0.6632512810        4.1672995788        6.1878597621
 H        -0.0921707779        5.4955683474        5.2769653511
 H         2.9911991352       -0.3873800350        6.6614945712
 H         1.7966996666       -0.1572683782        5.2896427998
 H         2.4554302792       -0.0013727212        2.0470810795
 H         3.4555205032       -1.4012573285        1.4846435875
 H         4.6605001538        0.3285006832        2.0692781041
 H         5.8110875328       -0.7738106567        2.3875594445
 H         5.9147909173        0.7037285739        3.2087031326
 H         4.5030471160       -2.2162603603        5.6441030624
 H         5.8190136544       -2.0911477057        4.5600222072
 H         5.6956594717       -1.0235589706        5.7940013716
 H         1.0994024840       -2.4785357622        2.6931862200
 H         1.3937549024       -2.5836174447        0.9774485002
 H         1.6637796839        0.1563762154       -1.5891714213
 H         0.4651196135        0.9945650949       -2.2742936630
 H        -0.5025359922       -1.1743416282       -1.7889444872
 H        -0.9165154110       -2.3382563216       -0.5212421857
 H         0.7108770618       -1.7143884869       -0.8185352742
 H        -2.0220546915        0.8855794009        1.1124945077
 H        -2.3624075474        0.1488946824       -0.5060680999
 H        -2.5434026431       -0.8097468889        0.9148288857
 H         2.0346791382        2.8285999577       -2.4013793398
 H         1.5974305537        2.9999542833       -0.6849890156
 H         6.1781104633       -0.8019940483       -2.5636650395
 H         6.1977838129       -1.1841952847       -0.9602500924
 H         4.3514645531        0.5063319888       -4.0415134225
 H         3.2348699834        1.9465263624       -3.9242498307
 H         2.7158802259        0.3357246190       -3.4458799886
 H         6.3150495347        0.8789036886       -2.6330092588
 H         5.7701644437        2.6289806826       -2.6967561551
 H         6.1498791358        1.8985394462       -1.1156024840
 H         5.3366881861       -3.4503073435       -1.2365499387
 H         6.3410626035       -3.1283367420       -2.6643195172
 H         1.0687141458       -2.7667628533       -2.7452855282
 H         1.4087117549       -3.6637785965       -4.2348918682
 H         4.3209199733       -4.9329763742       -5.0718514725
 H         2.5746452351       -5.0181126663       -4.9603041979
 H         3.4308278924       -6.4598283099       -4.7234693633
 H         4.0057291795       -6.7207500886       -2.3072785705
 H         5.5026606669       -5.8208603775       -2.7192710820
 H         4.6331136349       -5.4867196578       -1.1928153620
 H        -0.0406734838       -5.5321364022       -3.6062274958
 H        -0.2096241617       -4.7371630539       -2.0884371743
 H        -3.9930804684       -2.1940616209       -4.3138855964
 H        -5.5024296162       -3.2958898743       -4.2281736407
 H        -3.1529759323       -3.3328871217       -5.6638484957
 H        -3.9877697919       -4.7459135417       -5.7799020842
 H        -2.2491862171       -4.7244795720       -6.1113637493
 H        -1.9644570122       -5.9635186998       -2.5404795931
 H        -3.4469679294       -6.5604974466       -3.3795268753
 H        -1.9440823164       -6.5877390255       -4.2591141451
 H        -4.7393715314       -1.4189669309       -2.0920971264
 H        -6.0930380927       -2.6109294871       -2.0860489218
 H        -5.7730215138        1.8960358343       -3.1684548825
 H        -7.3242991922        2.7227894933       -3.3487524542
 H        -7.9559715150        0.4509448018       -4.6286282370
 H        -9.2675162224        0.9151921660       -3.4041025843
 H        -9.1625015007       -0.6998682236       -4.0555794531
 H        -9.0958092815       -0.6943911558       -1.2308391391
 H        -8.6734692519       -2.1938009329       -2.2900101124
 H        -7.6398656586       -1.7451860296       -0.9835471807
 H        -5.7351950726        4.1990615420       -2.0791983113
 H        -7.0417145649        3.5833806058       -0.9276919404
 H        -2.5650757946        4.6933757710       -0.3318206733
 H        -2.7747856673        5.5594785616        1.2811875896
 H        -1.3775119478        4.4669490422        0.8905938884
 H        -6.3324916405        5.1289572134        0.3926322144
 H        -4.7473597189        5.5031174743       -0.0075131533
 H        -5.2045030730        5.5209407412        1.7225917388
 H        -6.7273485988        2.4632035324        1.2852108345
 H        -5.2372105673        1.5848476428        1.8279627366
 H        -5.7880009521        3.0523345954        2.7325821565
 Na       -0.6940934579        2.3196782202        2.8573399084
