155

 C         3.2522417832        4.4772411440        3.6320262676
 C         1.8539202326        4.0345299560        3.9022760707
 C         1.3501929976        3.8801200792        5.3115028966
 C         1.1148302054        2.3686607902        5.5126873966
 C         2.1040004710        1.6107651889        6.3817154992
 C         2.3495584179        4.5859811569        6.3025671767
 C         0.0705964931        4.6937859470        5.4510044206
 O         1.1556128696        3.6919248496        2.9641765286
 O         0.1845855155        1.8891519033        4.9113006470
 C         2.6434969535        0.2587965309        5.7495587739
 C         3.7847162478        0.4121439801        4.7933741137
 C         4.1597870518       -0.7506757414        3.8787538503
 C         3.0250481215       -1.7327247962        3.5940343318
 C         2.4299115644       -1.8559621040        2.1567135478
 O         4.5184449331        1.4362425756        4.9705537640
 O         2.5053586534       -2.4504440526        4.4713427910
 C         4.8667243990       -0.1785740467        2.6254261540
 C         5.1394984857       -1.5761316115        4.7967816332
 C         0.8451394317       -1.9800640206        2.2003660627
 C         0.1299033570       -0.6564087592        1.9873596833
 C        -0.4302982805       -0.2340458060        0.6023314440
 C         0.2836611142        1.1893396467        0.0781621053
 C         0.7796345204        1.2378641388       -1.3312844709
 C        -0.3793942239       -1.3061760077       -0.4643442247
 C        -1.9136612783        0.0241339814        0.7542241008
 O        -0.2054876971        0.0136826778        2.9255472447
 O         0.3727114029        2.1960180916        0.8033378490
 C         1.8339207595        2.3355872180       -1.6422231770
 C         3.2535852345        1.9242626040       -1.3165080282
 C         4.1788718027        1.2091936884       -2.2270908659
 C         4.2721282111       -0.3214694904       -1.6139335825
 C         5.5682453539       -1.1673500097       -1.8546187473
 O         3.6824812590        2.0627933015       -0.1756153383
 O         3.2435531994       -0.8536120916       -1.2858587721
 C         3.6969655436        1.0274998195       -3.6908693929
 C         5.6168758924        1.6673866277       -2.1713075138
 C         5.2974350794       -2.6727931922       -1.6702196720
 C         4.6255760886       -3.2575538370       -2.9233947390
 C         3.8844638970       -4.5784278221       -2.7469769583
 C         2.5032745980       -4.0260842209       -2.1923879650
 C         1.3391576527       -3.5384061771       -3.1549056509
 C         3.8269341198       -5.4276093761       -4.1361457563
 C         4.5821703660       -5.4368843896       -1.6325104889
 O         4.6766153898       -2.6100604271       -3.9185435227
 O         2.3402980529       -3.9950885942       -0.9914633606
 C         0.1583446676       -4.4790044581       -3.3941088549
 C        -1.1053405246       -3.8309960385       -4.0133404567
 C        -2.4505519170       -4.5543012059       -4.2238726920
 C        -3.5534888396       -3.8347953501       -3.5118356562
 C        -4.2529190888       -2.4708929642       -3.8874103230
 O        -1.1280275121       -2.6761100810       -4.3342132610
 O        -4.0580231789       -4.4670092423       -2.6023624096
 C        -2.6528951274       -4.4339572879       -5.7283637302
 C        -2.3552285508       -6.0281914335       -3.6668752263
 C        -5.5224996855       -2.2225718409       -3.1011998033
 C        -6.2659935202       -0.9277241046       -3.4597932013
 C        -7.5339409105       -0.2958184463       -2.6939173409
 C        -7.0543055302        0.8183358948       -1.7036189200
 C        -6.4794963304        2.0039133594       -2.3747252316
 C        -8.5001151198        0.2580485865       -3.7802694888
 C        -8.2669438679       -1.4821852681       -1.8921756958
 O        -5.8069686837       -0.2446283848       -4.3527536477
 O        -7.1662930121        0.7261960884       -0.4889901917
 C        -6.4078676529        3.1813069492       -1.4388457425
 C        -5.2760111741        2.9197124338       -0.4446578530
 C        -5.0875116884        3.7070832668        0.9576423869
 C        -3.5888171252        3.6663263210        1.3805616088
 C        -2.6607196516        4.6719844233        0.6722617861
 O        -4.3866841374        2.1646287431       -0.7193525906
 O        -3.1007102819        2.8258842004        2.1272350743
 C        -5.6623092040        5.1893240055        0.8410135971
 C        -5.8505937561        2.6579455407        1.8905017482
 H         3.6710549774        5.4221824296        4.0746537628
 H         4.0091349522        3.6315108392        3.9011164765
 H         3.3820639752        4.6702733575        2.4929979363
 H         3.0113978451        2.2547962961        6.4372152506
 H         1.8839683442        1.5718264295        7.4468444348
 H         3.4191049017        4.2759657101        6.2020775512
 H         2.0299510560        4.2100909233        7.2962572658
 H         2.3945575084        5.6991068150        6.3561696852
 H        -0.7668525165        4.2871114416        4.7620537112
 H        -0.4341850232        4.6678893436        6.4216153420
 H         0.1928694354        5.8013618058        5.1301623927
 H         3.0512411642       -0.5112339700        6.4925937218
 H         1.7960664690       -0.1433411850        5.2074750446
 H         2.7040596141       -1.0444137425        1.4677115547
 H         2.6836521107       -2.8140614457        1.7249173131
 H         4.3614719954        0.7086802445        2.0960442564
 H         5.0427395447       -0.8318403055        1.8102960199
 H         5.7552897053        0.4273501152        2.8284739372
 H         4.6791470202       -1.7024523467        5.7921721035
 H         5.3510498265       -2.5772380276        4.3620792788
 H         6.1204910864       -1.1161506707        5.0386179450
 H         0.5678556592       -2.2129678546        3.2028653379
 H         0.4918106773       -2.7687793669        1.4942732895
 H         1.2677938191        0.2539961631       -1.6483888386
 H         0.0239216233        1.2944156733       -2.0740917963
 H        -0.7911736269       -0.8013507689       -1.3633591959
 H        -1.0433171202       -2.0906994102       -0.3027776583
 H         0.4649355524       -1.8089372931       -0.7684128491
 H        -2.4523566822       -0.8811468088        0.8721707671
 H        -2.2013508466        0.6504882495        1.5709372966
 H        -2.3585016657        0.4703777555       -0.1192618470
 H         1.6834919958        2.6386024921       -2.6710165434
 H         1.5166019681        3.1479074682       -0.9892915447
 H         5.8109659369       -0.9690445462       -2.9584054703
 H         6.4000729598       -0.7193697677       -1.2975334751
 H         3.6194771180       -0.0181308941       -3.9779818737
 H         4.3112276697        1.5725343142       -4.4271965751
 H         2.7703414377        1.5759408936       -3.7255169349
 H         6.2816415585        1.0956277145       -2.8921843056
 H         5.6600038270        2.7431176628       -2.3555791376
 H         6.0573271222        1.5903974102       -1.1549191770
 H         4.6279639008       -2.8151416568       -0.8646669850
 H         6.2601567725       -3.1985382226       -1.5316562014
 H         0.9660775538       -2.6228106982       -2.6689120912
 H         1.6740639831       -3.2446057552       -4.0923303448
 H         4.7199664247       -6.0491377422       -4.2475945245
 H         3.8788193326       -4.7671103401       -5.0740651111
 H         2.8898360002       -5.9559430793       -4.2002232920
 H         4.1064649965       -6.3980504592       -1.7909188906
 H         5.6376729514       -5.6930551215       -1.8694382058
 H         4.4798698340       -4.9239020237       -0.7428881293
 H         0.5626210486       -5.3068880488       -4.0104143585
 H        -0.1675150754       -4.8595100656       -2.4439533239
 H        -3.5607529948       -1.5936270177       -3.7833500136
 H        -4.4449693412       -2.6290602985       -4.9733082397
 H        -2.4126363551       -3.4490792503       -6.1796327566
 H        -3.6620107817       -4.7477194449       -5.9918455180
 H        -1.9402895389       -5.0870857423       -6.2941830250
 H        -2.2437723370       -6.0370757100       -2.6063286701
 H        -3.2969912132       -6.4821703459       -3.8175825639
 H        -1.6668190809       -6.6323199670       -4.2077676499
 H        -5.2382128586       -2.2870602894       -2.0993865381
 H        -6.2878172898       -2.9192921316       -3.3642939871
 H        -5.5116886104        1.8587158186       -2.8312628646
 H        -7.1181741278        2.1935813537       -3.3301074805
 H        -8.1622962486        1.0714497291       -4.3420674751
 H        -9.5090502272        0.4446685248       -3.3646206987
 H        -8.7854303464       -0.5298625871       -4.4317013667
 H        -9.3138841531       -1.2449937462       -1.6614383775
 H        -8.1224319276       -2.4712828654       -2.3816343156
 H        -7.8269376084       -1.5034480490       -0.8909296144
 H        -6.1784492703        4.0614541143       -2.0041631373
 H        -7.3068790131        3.2327886533       -0.9239816145
 H        -3.2362569990        5.1971538694       -0.0434439150
 H        -2.4609057150        5.4925256069        1.3268794930
 H        -1.7230936814        4.2358154293        0.1911675334
 H        -6.6874936677        5.1237707368        0.4653521425
 H        -5.0474240145        5.7124861588        0.1045797880
 H        -5.6485601401        5.6329264665        1.8058515479
 H        -6.8030693114        2.3711210326        1.4906938885
 H        -5.1875497942        1.8301190968        1.8806976179
 H        -6.1956567600        3.0403707141        2.8790838388
 Na       -0.8175162706        2.4367331619        2.8626913879
