155

 C         2.7678099995        3.7422653695        2.2870605146
 C         1.4933079386        3.9527602291        3.0306585910
 C         1.5966421834        4.0140365688        4.6597718583
 C         1.1011527174        2.6548095985        5.2287005527
 C         1.7361366603        1.9626640282        6.4173052816
 C         3.0944834213        4.4224433899        5.0828326410
 C         0.6135855609        5.1317225835        5.1355043979
 O         0.4188017641        4.0738860241        2.4400389303
 O         0.1895208995        1.9973534128        4.7301253972
 C         1.7957895721        0.4552019415        6.1895194018
 C         2.7393142400        0.2823672734        4.9844829973
 C         3.1874694619       -1.1396042107        4.6940282340
 C         1.9282899883       -1.9008413112        4.0811414561
 C         1.7922651596       -1.6625787573        2.5553450221
 O         2.9088315715        1.2617025280        4.2375180533
 O         1.0860547283       -2.3845092802        4.7785953321
 C         4.3882450221       -1.2725314501        3.7291956934
 C         3.5682420342       -1.8789417741        6.0401014652
 C         0.3573700396       -2.0954228620        1.9549571312
 C        -0.5433876798       -0.8952044468        1.8898162542
 C        -1.0800715656       -0.5016533376        0.5213112343
 C        -0.2294393031        0.7571509702        0.0222106375
 C         0.4014205114        0.7114587978       -1.3873448104
 C        -1.0859977905       -1.6965893538       -0.5005090017
 C        -2.6038352553       -0.0939575066        0.5797530928
 O        -0.9111842360       -0.3135929405        2.9135700486
 O        -0.2297942469        1.7324546101        0.7135250861
 C         1.0149726100        2.0731736131       -1.8633580424
 C         2.5410938783        2.0488327538       -1.4845260248
 C         3.7018139243        1.9459471481       -2.6271046935
 C         3.8944571935        0.3877477649       -2.5553138509
 C         5.0017007500       -0.2575730686       -1.6818682353
 O         2.8817900360        1.9696299458       -0.3053900613
 O         3.1690609357       -0.3833314898       -3.1381713003
 C         3.2773337125        2.5505565855       -4.0076364410
 C         5.0497295813        2.7151020906       -2.3323955535
 C         4.5800455909       -1.6450176806       -0.8665773561
 C         4.8692568486       -2.8050657828       -1.9029503476
 C         4.0578845963       -4.2422011778       -1.5067809678
 C         2.5788380667       -3.6237868248       -1.8303205485
 C         2.3415586904       -3.4241785508       -3.3210596046
 C         4.4142179460       -5.4381011511       -2.4462316942
 C         4.3375930527       -4.5140530983       -0.0342377144
 O         5.7062702706       -2.7682889087       -2.7413962484
 O         1.7951771633       -3.1562478280       -1.0168866727
 C         1.0255951817       -4.0702186181       -3.8970772112
 C        -0.0062410852       -3.0421309510       -4.3446204139
 C        -1.1270103016       -3.5068683062       -5.3419681923
 C        -2.3562098459       -3.7713487149       -4.4520506491
 C        -3.0931712111       -2.5775182222       -3.8741284488
 O        -0.1133165999       -1.9214863656       -3.8775652930
 O        -2.6517412042       -4.9068402128       -4.1478457350
 C        -1.3455506074       -2.3511430898       -6.3617333720
 C        -0.8117861746       -4.7797331576       -6.0532600650
 C        -4.4010832996       -2.3128410397       -4.7220399223
 C        -5.0477713634       -1.0417939155       -4.1107930273
 C        -6.2225210283       -1.1893025108       -3.0962861181
 C        -6.0727198568       -0.2843336740       -1.7760214950
 C        -6.3021560586        1.2153154922       -1.6251287153
 C        -7.5567703151       -0.7962753141       -4.0358553285
 C        -6.4230524751       -2.5956246179       -2.6033832456
 O        -4.8041617690        0.0654726237       -4.5027298475
 O        -5.5286297462       -0.7677931648       -0.8027050561
 C        -6.4435212896        1.6065153726       -0.1330091432
 C        -5.4924159071        2.7632292503        0.3259306175
 C        -5.3817841464        3.1166249140        1.9519798735
 C        -3.8117138422        3.1673093045        2.4071080895
 C        -3.0257934255        4.3252974596        2.0509475321
 O        -4.6662601262        3.3027254837       -0.4755184552
 O        -3.2887637035        2.1848653583        2.8225758874
 C        -5.9983108991        4.5293899126        2.2162791927
 C        -6.0967342061        1.9552641521        2.7885669370
 H         3.5070175235        4.5089742223        2.1146805843
 H         3.4597075347        2.9673624612        2.7286150503
 H         2.5497739074        3.3742089874        1.2989207267
 H         2.6809188304        2.4011622084        6.6439737585
 H         1.2807244500        2.2112422298        7.3543578212
 H         3.8206879434        3.6312207982        4.9274180567
 H         3.2315114292        4.7662124379        6.1429539178
 H         3.2659720467        5.2279362350        4.4111646847
 H        -0.1652798267        5.1125267885        4.4003803215
 H         0.2754938689        4.9493896657        6.1073881970
 H         1.0487115993        6.1023708752        5.1453340570
 H         2.1901922278        0.0512351903        7.0796059218
 H         0.8561344818        0.0883119171        5.8513109720
 H         2.0962803585       -0.6872645313        2.1947979461
 H         2.4986909890       -2.3700150257        2.1369071537
 H         4.0078713751       -1.0325810404        2.6422249629
 H         4.8363173598       -2.2383007371        3.8597262469
 H         5.1949111597       -0.5985802824        3.9750495545
 H         2.7186077172       -1.9595555109        6.6384983149
 H         3.7945307490       -2.8393027735        5.7166311279
 H         4.4455919332       -1.4827521593        6.5388722156
 H        -0.1065186734       -2.8510159415        2.6233096971
 H         0.5655239638       -2.5591132338        1.0389893666
 H         1.0881479281       -0.1141867057       -1.3201633747
 H        -0.3809902464        0.2695194753       -2.0751185301
 H        -1.6270343681       -1.2988707250       -1.3895504705
 H        -1.6162729714       -2.5455681144       -0.0640619432
 H        -0.1295910871       -1.8902116669       -0.7253818055
 H        -3.0500492593       -0.6886742416       -0.1916892519
 H        -2.8692063966       -0.4818968399        1.5657291405
 H        -2.7771189970        1.0030819433        0.5114448534
 H         0.8267607567        2.1029476404       -2.9119523331
 H         0.4870398712        2.9662305723       -1.4224442066
 H         5.8703505908       -0.3930554900       -2.3217458796
 H         5.2265273113        0.5490605209       -0.9454589482
 H         3.9857480518        2.2758917836       -4.8084970171
 H         3.2509984200        3.6666489515       -4.0295557481
 H         2.3151601787        2.1307241432       -4.2761142911
 H         5.6887548159        2.1699130703       -2.9363215199
 H         5.0319731908        3.6890798826       -2.6510403507
 H         5.4424166907        2.5679823627       -1.2936917568
 H         3.5441875031       -1.5289846829       -0.5422076854
 H         5.2141208229       -1.7549179001       -0.0043853861
 H         2.3665913170       -2.3839382692       -3.5621247294
 H         3.1962429978       -3.8422003077       -3.9047117579
 H         4.0441660568       -5.3005463782       -3.4983770398
 H         3.8173545656       -6.3646648851       -2.1921471417
 H         5.4812573475       -5.8291736916       -2.2774946581
 H         4.0605879627       -5.4620467709        0.3772522413
 H         5.4025356190       -4.3070024755        0.2702974187
 H         3.6837201661       -3.9968181581        0.6716149419
 H         1.3116935613       -4.6563256983       -4.7863823321
 H         0.4270043521       -4.6910475463       -3.2076066538
 H        -3.3777218166       -2.7830072807       -2.8679072326
 H        -2.4537494851       -1.6814609902       -3.8709076246
 H        -1.3829940241       -1.3692953160       -5.7731089042
 H        -2.0334048807       -2.5918911179       -7.1214353708
 H        -0.4080422189       -2.2900097528       -6.9284296232
 H        -0.3982839018       -5.5825202284       -5.4015210267
 H        -1.7384979811       -5.0854679663       -6.6234889018
 H         0.0059711955       -4.5447017631       -6.7849830581
 H        -4.9127090886       -3.2771932143       -4.5342833539
 H        -4.1179722717       -2.0781476650       -5.7719573811
 H        -5.4037044831        1.8088683756       -2.0078043932
 H        -7.1883145475        1.4839208515       -2.1791528704
 H        -7.3317156464       -0.0791797245       -4.8157452632
 H        -8.3776878665       -0.4652207845       -3.3924514484
 H        -7.6947099794       -1.7771397016       -4.5433643824
 H        -7.1797469220       -2.6292426717       -1.8102618066
 H        -6.8355860806       -3.2856918138       -3.3254539045
 H        -5.5271344887       -2.9676885711       -2.0933919062
 H        -7.4409910966        1.9161954679        0.0457608352
 H        -6.1657698459        0.7350957163        0.5335902967
 H        -2.4214547543        4.1346650480        1.1980715653
 H        -3.6172440372        5.1275409454        1.8244618307
 H        -2.2289846802        4.6065666733        2.7917492923
 H        -7.1522361251        4.4067232378        2.1366155034
 H        -5.6953826073        5.3087194308        1.4700261968
 H        -5.6762678162        4.7860508785        3.2381125771
 H        -7.1645786048        1.9217018464        2.4116912947
 H        -5.6697214909        0.9778730140        2.5200261309
 H        -5.9557154736        2.0048171445        3.8296735551
 Na       -1.0333838392        2.0879608084        2.8468970563
