155

 C         2.5338038529        4.5833482237        2.9386240751
 C         1.0533404865        4.2440495420        3.1628070462
 C         0.4823722884        4.2947777506        4.7134247266
 C         0.0745141471        2.9344208510        5.3593516986
 C         0.6251459220        2.5126939085        6.7846385851
 C         1.5006690056        5.0054248366        5.7040235169
 C        -0.8183496834        5.1220495928        4.6509480850
 O         0.3479120881        3.9371272666        2.2563251685
 O        -0.6826607396        2.1400219761        4.7977254596
 C         0.4460004488        0.9757288723        6.9788850945
 C         1.6125265914        0.2166566985        6.1892583667
 C         1.5589109407       -1.3445154790        6.0248504131
 C         1.6731945225       -1.6933221892        4.4226320057
 C         2.8298719690       -1.1237404507        3.5359960665
 O         2.6074377882        0.8812801159        5.7857374037
 O         0.8052424553       -2.3816814338        3.9396269292
 C         2.8817214592       -2.0261001760        6.7125480142
 C         0.3401254123       -2.1640758737        6.4649138691
 C         2.4167810981       -0.9529754213        2.0244581879
 C         1.1984964982       -0.1006563685        1.8237989628
 C         0.0291034232       -0.7671140328        0.8934834800
 C        -0.3336913827        0.3919861831       -0.1434531608
 C         0.5136750143        0.4699632712       -1.3966374085
 C         0.4477456014       -2.0218817666        0.0791297841
 C        -1.1577159789       -1.1201003643        1.7949327635
 O         1.0144236879        1.0074810743        2.2826321249
 O        -1.0733195351        1.2832824839        0.2099127582
 C         0.7990530579        1.8918262065       -1.7504809787
 C         2.2789413908        2.2341377945       -1.7171682141
 C         3.1473548051        1.9084928406       -2.9727581400
 C         3.4002247942        0.2810313922       -2.7821369148
 C         4.4661758153       -0.0372693271       -1.7751669763
 O         2.7894112523        2.6705847802       -0.7361813737
 O         3.0044998968       -0.4851274598       -3.6089031911
 C         2.4904166026        2.0265697301       -4.3549783080
 C         4.4540635734        2.6652376814       -2.8100809456
 C         4.2316436398       -1.5152840065       -1.3751367512
 C         4.9579348936       -2.5139744547       -2.3174313468
 C         4.6666091694       -4.0518579809       -2.2640018968
 C         3.1500585725       -4.1989941345       -2.3570002666
 C         2.5782298223       -3.7268024034       -3.7538789101
 C         5.3621849106       -4.9129068175       -3.3794981445
 C         5.2810982648       -4.3069678838       -0.8930907373
 O         5.7736511579       -2.1155857497       -3.0923674248
 O         2.4058943334       -4.2793722372       -1.3733347191
 C         1.1414130812       -4.0562172760       -4.0019745271
 C         0.3159010797       -2.8176114579       -4.2857186443
 C        -0.3831973143       -2.6370160563       -5.6876839149
 C        -1.9049224306       -3.1800953460       -5.6098296715
 C        -2.7965877959       -2.4703875402       -4.5361980661
 O         0.0605633727       -2.0256593014       -3.3670746813
 O        -2.2050700066       -4.2013472175       -6.2130845762
 C        -0.3567518936       -1.1864563710       -6.0796423172
 C         0.3522236887       -3.5567167845       -6.6913424336
 C        -3.9926595094       -1.8012849587       -5.2315800777
 C        -4.7459054127       -0.8872132583       -4.3502637578
 C        -5.6716264359       -1.4616494110       -3.1928793096
 C        -5.1180066492       -1.0696709961       -1.7855103321
 C        -5.6275238990        0.3535515907       -1.1789088723
 C        -7.0623854804       -0.7557069239       -3.5423563036
 C        -5.8953952682       -3.0265878565       -3.2302780983
 O        -4.6865044302        0.3406588720       -4.5738445521
 O        -4.3995809044       -1.8006543771       -1.1831782278
 C        -5.1023368484        0.6398147067        0.2081226291
 C        -5.7795743909        1.8533111384        0.7839482219
 C        -5.5544130227        2.4600967801        2.2623769073
 C        -4.0742571835        2.7555700048        2.3772426899
 C        -3.6201165263        3.8979043865        1.5529021830
 O        -6.6953175267        2.4513104598        0.2431261664
 O        -3.2843145467        2.1841490807        3.1997196116
 C        -6.3069068826        3.7526824166        2.3341165108
 C        -6.0397060824        1.3902997215        3.3022200582
 H         2.7570983284        5.6937474388        3.1856682095
 H         3.2958767811        4.0662951668        3.5502456304
 H         2.6615039698        4.4203883684        1.8190540536
 H         1.7519270638        2.5520446986        6.8359937624
 H         0.0039900426        3.0490895025        7.5415412722
 H         2.4058288314        4.4213012291        5.6192370876
 H         1.1281310319        4.8641274752        6.7201197434
 H         1.6335180897        6.0845351825        5.5985316790
 H        -1.5424689057        4.7403862220        3.8543450540
 H        -1.3009758357        4.9898277736        5.6856870204
 H        -0.5271617316        6.1364572257        4.3059108961
 H         0.5375185111        0.6796287860        7.9939307922
 H        -0.5126999485        0.5262781160        6.6479345311
 H         3.2109068096       -0.1703939035        3.9700392854
 H         3.6260808126       -1.9205186566        3.5492117827
 H         3.7041675670       -1.6993509363        6.2220716431
 H         2.6893079125       -3.0845753855        6.6871220804
 H         2.8873069794       -1.5520655843        7.7380066601
 H        -0.5225024431       -2.0724807566        5.8753995310
 H         0.5433989281       -3.1730154403        6.2696390029
 H        -0.0419409618       -2.1149050337        7.4568604864
 H         2.2512431355       -1.9960138222        1.6769654897
 H         3.2615664324       -0.5708005707        1.4422266904
 H         1.5062107217       -0.0218283955       -1.1355935090
 H         0.2813575176        0.0808951774       -2.3398745145
 H        -0.1582302064       -2.2698729493       -0.7802155565
 H         0.5310446481       -2.8945920548        0.6437198937
 H         1.4871501748       -1.8900809766       -0.4458706268
 H        -1.9957443398       -1.5285062230        1.2905710407
 H        -0.8919497997       -1.8348963166        2.5382393266
 H        -1.5927680820       -0.3811793473        2.3868375145
 H         0.4719977646        2.2828014321       -2.6914978883
 H         0.3431160781        2.5163519123       -0.9951640537
 H         5.4688919133        0.2008681637       -2.1544014763
 H         4.3558331421        0.5396230186       -0.8599601357
 H         3.2507047453        2.1277849182       -5.1459045559
 H         1.7625340058        2.8802839049       -4.3205031757
 H         1.9543914468        1.1234145212       -4.6080260332
 H         5.2612334829        2.4028448915       -3.5807956434
 H         4.2963689647        3.7696881654       -3.1272694232
 H         4.8498911483        2.7281322096       -1.8195199768
 H         3.1803371306       -1.7606177114       -1.1892007746
 H         4.7152791492       -1.6599563681       -0.3919190769
 H         2.7661084820       -2.6206395467       -3.6929840165
 H         3.2207310797       -4.0888705608       -4.5425522193
 H         5.8436385286       -5.8074924558       -2.8451657115
 H         6.0006907528       -4.2461928425       -3.9147170449
 H         4.6796330451       -5.2553433489       -4.0168043539
 H         5.3985480295       -5.3480369517       -0.6424036779
 H         6.2526537061       -3.7990107652       -0.7209743750
 H         4.7807428211       -3.7135481506       -0.1784106436
 H         1.1542499379       -4.8539787265       -4.7941943825
 H         0.8385200363       -4.4077825008       -3.0621435377
 H        -3.1250172683       -3.3028644610       -3.9171168194
 H        -2.1214312413       -1.7483607880       -4.0410608675
 H        -1.3359708147       -0.6120367922       -6.0884776515
 H        -0.3639534858       -1.1673920233       -7.2045548362
 H         0.5426134840       -0.6804125784       -5.7752825594
 H         0.2339514350       -4.6628044170       -6.5114705869
 H        -0.0643897160       -3.3466879450       -7.6984898292
 H         1.4595131654       -3.5234340683       -6.6430964618
 H        -4.6329593253       -2.5620372700       -5.6223324407
 H        -3.6383769339       -1.0924791638       -5.9943920255
 H        -5.3720078360        1.1762627993       -1.8217084677
 H        -6.7342409869        0.3036658088       -1.0387480717
 H        -6.7207469663        0.2423940286       -3.5176919432
 H        -7.8834100481       -1.0762434076       -2.8564968749
 H        -7.2682589714       -1.1468833406       -4.5550361376
 H        -6.4329366654       -3.4488042378       -2.3878893415
 H        -6.4130054267       -3.2697912390       -4.1740434917
 H        -4.8840512071       -3.4897555769       -3.2906613102
 H        -5.2748810609       -0.0648939220        0.9283842798
 H        -4.0723398550        0.9168610635        0.1808704761
 H        -4.2867635216        3.9515224452        0.6703730592
 H        -3.6461118889        4.9311037165        2.0699404242
 H        -2.6329070857        3.7844596212        1.2476277940
 H        -7.3652528786        3.6804663176        2.5074347763
 H        -6.1400813046        4.4353868842        1.4841516375
 H        -6.1467636458        4.1977829028        3.2791807372
 H        -7.0708685827        1.1073084700        3.0793852105
 H        -5.4790994243        0.4911193020        3.1756565196
 H        -6.0816086507        1.7148100040        4.3569379445
 Na       -1.0071212320        2.0875945942        2.5290738568
