155

 C        -8.5701621038       -8.9762015698        1.4966706138
 C        -8.4269176694       -7.6147298886        1.0389526603
 C        -7.2250070043       -7.2437276901        0.1824898488
 C        -6.0632830588       -7.0019744348        1.2912123912
 C        -4.9358242659       -6.0371304051        1.0697334413
 C        -6.8197999553       -8.3583360301       -0.8052432209
 C        -7.3654341928       -5.9927865176       -0.7396611409
 O        -9.1940408393       -6.7572504297        1.4820279641
 O        -6.1740631424       -7.5997577283        2.3661497721
 C        -5.4023665001       -4.6040339110        1.4798077567
 C        -4.3399890779       -3.5508192354        1.4984647714
 C        -4.5727888739       -2.1172072922        2.1162199553
 C        -4.1635150650       -1.0685561239        1.0158054499
 C        -2.6834274132       -0.7228112706        0.8734350718
 O        -3.2026109701       -3.7789122175        1.1120473809
 O        -5.0305374006       -0.4223858826        0.4176779983
 C        -6.1238154109       -1.9779465394        2.4036360123
 C        -3.7982678055       -1.8662770825        3.4284504589
 C        -2.5260026495        0.4593008633       -0.0472130965
 C        -1.2648239626        1.2422775077        0.1255045623
 C        -1.1367489490        2.4116856487       -1.0426097316
 C        -0.8732832112        3.7688280922       -0.2079992862
 C        -2.0886462443        4.6271335161        0.1200991523
 C         0.1781282090        2.1206400035       -1.8782669999
 C        -2.3567318287        2.4800449444       -1.9789228473
 O        -0.4311198431        1.1346600143        1.0058230659
 O         0.2389380725        4.0881071991        0.1578837310
 C        -1.6740814083        6.0339841369        0.7568377970
 C        -2.5912811433        6.4904599496        2.0521216190
 C        -1.9052731484        7.3738315537        3.1612512020
 C        -0.9386643025        6.4534907426        4.0099026884
 C        -1.2683922774        4.9211797736        4.1416975326
 O        -3.6682500660        5.9737792713        2.2812579324
 O         0.1003557230        6.9096218653        4.3774829515
 C        -1.0809577291        8.5946733796        2.7284464183
 C        -3.0041953978        7.8390467429        4.0894853417
 C        -0.3442992460        4.1406688078        5.1619832123
 C         0.7366384285        3.3924293850        4.4956070321
 C         1.7461179962        2.5175058011        5.4174437139
 C         2.8345828359        2.0577693776        4.4084663335
 C         4.0757542187        3.1143595339        4.1553302188
 C         2.3756175458        3.2515574254        6.5792170632
 C         0.9212613313        1.3385755375        6.0067128511
 O         0.8130837051        3.3489531815        3.2997103353
 O         2.7454899253        1.1128220158        3.6810803676
 C         4.9494063954        2.7209270999        2.9353321005
 C         4.4503310773        3.2094312428        1.6269486768
 C         5.0362376739        2.5628585054        0.3417717482
 C         4.3507209504        1.1775315630        0.0336358972
 C         5.1031499856        0.0554516418       -0.6561584877
 O         3.6417858023        4.1264362612        1.5097527294
 O         3.1860870857        1.0009327158        0.3300761942
 C         4.7182818983        3.4605628126       -1.0353460029
 C         6.5780405497        2.4286660796        0.4187381662
 C         4.0223606272       -0.9385296573       -1.1928564936
 C         4.2950434471       -1.5934138437       -2.4905275599
 C         2.9821329987       -2.2717620668       -3.1861067443
 C         2.4261773641       -1.2560852812       -4.1837627639
 C         3.1466607471       -1.0010543391       -5.4568231856
 C         3.5311339314       -3.5174300520       -3.9391055409
 C         1.8211343232       -2.6644607969       -2.1049904488
 O         5.3019253336       -1.6797275515       -3.1136494443
 O         1.3515273647       -0.7459566690       -3.9692695354
 C         2.3670427085       -1.6722063747       -6.6923366340
 C         3.2090997448       -2.4192650653       -7.7072161573
 C         2.4036067537       -3.1804834295       -8.8023269579
 C         1.7090463616       -4.4036325774       -8.1229993497
 C         2.0667091464       -5.8408810297       -8.4927546904
 O         4.3794712618       -2.3639709393       -7.7294152657
 O         0.8928773070       -4.2114186213       -7.2549530501
 C         1.2886592280       -2.2320034561       -9.3727357715
 C         3.3197582577       -3.4654776336       -9.9654556830
 H        -8.3345273013       -9.6447034670        0.6922571258
 H        -7.8096487568       -9.2181591560        2.2214650880
 H        -9.5625783289       -9.1268757334        1.8831140866
 H        -4.0598847683       -6.2929464082        1.7621473428
 H        -4.6381814323       -6.0118626650        0.0680124022
 H        -6.3038051414       -8.0662519756       -1.7345039828
 H        -7.6574667350       -8.9962473676       -0.9794464985
 H        -6.0870824897       -8.9778760906       -0.2868012025
 H        -8.2806655501       -6.1321504216       -1.2548602060
 H        -7.3979798629       -5.1204955652       -0.1723726596
 H        -6.4504123650       -5.9226030483       -1.4113246132
 H        -6.2111520825       -4.2309779676        0.7600530822
 H        -5.9655124126       -4.6032769347        2.4032406399
 H        -2.2858976632       -0.5423521897        1.9563308690
 H        -2.1634868674       -1.6359616150        0.4586362271
 H        -6.2106906977       -0.9729731923        2.6871255625
 H        -6.2423707461       -2.4763195634        3.3192575325
 H        -6.7035961720       -2.1702895091        1.5286120798
 H        -3.9945831823       -2.7052851105        4.0832097464
 H        -2.7057820912       -1.8785488938        3.3218607948
 H        -4.1895960039       -0.9271840849        3.7162389278
 H        -3.2723051556        1.2529987662        0.1644580684
 H        -2.7305370988        0.2217695768       -1.0869029541
 H        -2.5552015975        4.9301603900       -0.7729912577
 H        -2.8502815251        4.1671945161        0.6684417195
 H         0.9214031536        2.3757525277       -1.2461853957
 H         0.1748294574        2.8523134683       -2.7128561125
 H         0.0660154226        1.1667596797       -2.3292814101
 H        -2.4149840689        1.6501689423       -2.6686035403
 H        -3.2876524330        2.5068703821       -1.4757095208
 H        -2.4183742265        3.4439018887       -2.4735317962
 H        -0.5920086796        5.9340485278        0.9283151225
 H        -1.7948309013        6.8090524870       -0.0461777074
 H        -2.3335568018        4.6917615125        4.4037477658
 H        -1.1561796205        4.4423257844        3.1206845004
 H        -0.4428617155        8.3132005136        1.9275121533
 H        -0.6331697516        9.1281886803        3.5938185896
 H        -1.7001915420        9.3884924465        2.2636682250
 H        -3.6035280390        8.5038218656        3.5282965561
 H        -3.6969062714        7.0223245133        4.3755183542
 H        -2.4995733883        8.3666803106        4.9543301801
 H        -1.0489189693        3.4216644370        5.6983531161
 H         0.0495056971        4.8889097866        5.8540105458
 H         3.7014002406        4.1170484690        4.1388170086
 H         4.6532488723        3.0125052774        5.0721207882
 H         2.7944240876        2.5203039305        7.2951439122
 H         1.6713542375        3.9255827613        7.0945938777
 H         3.3495562798        3.7538766320        6.2961978110
 H         1.6488996372        0.7965859569        6.6527141272
 H         0.2043088179        1.7613446663        6.6801284491
 H         0.4864280092        0.6127358871        5.3226822263
 H         5.9727319842        3.1048215174        3.1215673912
 H         4.9932513851        1.5918838885        2.9403307696
 H         5.7018301644        0.4817308976       -1.4383291977
 H         5.8077768627       -0.4705462073       -0.0509874354
 H         4.0675151193        4.2663126115       -0.7502950431
 H         4.1561926747        2.8107185523       -1.7194743191
 H         5.6572265550        3.9164486476       -1.3776656433
 H         6.9576798478        2.2252076434       -0.5407677548
 H         7.0168354865        3.3043553378        0.8623629715
 H         6.9226272859        1.5733203705        1.1150467701
 H         3.1071276859       -0.4092975127       -1.1637734970
 H         4.0923012023       -1.7433452754       -0.4278724576
 H         3.4283920809        0.0277706158       -5.7241440871
 H         4.1587782348       -1.4869913213       -5.4518280274
 H         4.1647695691       -3.0901366040       -4.7340318032
 H         2.6390507537       -3.9463378683       -4.5173279805
 H         4.0923044337       -4.2521547255       -3.3080060534
 H         1.2875272718       -1.8234373587       -1.7086473614
 H         0.9700340395       -3.2316270847       -2.5376604379
 H         2.3234953281       -3.2713425238       -1.3112708237
 H         1.4733286386       -2.2595009523       -6.3780494399
 H         2.0456914730       -0.7991997768       -7.2819204934
 H         1.2344468570       -6.3737845054       -8.9267428737
 H         2.9031600587       -5.8879117363       -9.1634631165
 H         2.3126501725       -6.5127845977       -7.7438173040
 H         1.7634621618       -1.4862466106      -10.0017608421
 H         0.5991834989       -1.8453909114       -8.7093513612
 H         0.6941066587       -2.7516180911      -10.0846836570
 H         2.7439974528       -3.8990379502      -10.8048367618
 H         3.8801476963       -2.4744999882      -10.2062184842
 H         3.9852577929       -4.3164249231       -9.8880328775
 Na        1.6629343822        2.4689601019        1.2869635913
