155

 C         1.7369809868        5.0395956121        4.5329234119
 C         0.4640084387        4.3383939283        4.1963276869
 C        -0.7673198955        4.4891815445        5.2119176261
 C        -1.1645256458        2.9243252050        5.5166381434
 C        -1.4808189663        2.5955875311        7.0200825429
 C        -0.3509142683        5.2594705053        6.5186858177
 C        -2.1375566256        4.9311998079        4.6585333663
 O         0.3728305609        3.7988160065        3.1171912088
 O        -1.3941170984        2.1270902728        4.6197627049
 C        -1.1629276542        1.0044572758        7.2840900941
 C         0.3286088906        0.7238092252        7.1685212507
 C         0.7511729566       -0.7835702097        6.9980512198
 C         0.1024211870       -1.2688458049        5.6025567178
 C         1.1558842222       -1.8446228561        4.5916456211
 O         1.1332501282        1.6555224524        7.0372904743
 O        -1.0752297633       -1.1721278383        5.2888012467
 C         2.2759988391       -0.8592561545        6.9610786840
 C         0.2218091330       -1.6825379486        8.1801599290
 C         0.5961029919       -2.1811799223        3.2440950652
 C         0.4570273891       -0.8267910633        2.5129519352
 C         0.0787189819       -0.8955772609        0.9440555300
 C         0.1003331699        0.5555206438        0.3031813447
 C         1.4629181113        1.1311183092       -0.0135750335
 C         0.9651364577       -2.0130263107        0.2361138662
 C        -1.4145797653       -1.2022133067        0.9349697676
 O         0.4668708908        0.2898994407        3.0373910253
 O        -0.8741784300        1.2440285995        0.2323041073
 C         1.5464832964        2.4181761563       -0.8776691405
 C         3.0904595897        2.4474820594       -1.3946585572
 C         3.4689497071        2.2317829824       -2.9272334008
 C         4.1972712349        0.8430883966       -3.0916451450
 C         5.7263560507        0.7470639472       -3.1429789116
 O         3.9729917616        2.4365438419       -0.5674856521
 O         3.5699332208       -0.2051419327       -3.1108430618
 C         2.2716370374        1.9833200762       -3.9123074789
 C         4.2744894162        3.4762965205       -3.4206678420
 C         6.2218778387       -0.7815410276       -2.8872260404
 C         6.0724981046       -1.7706611242       -4.1382841067
 C         5.9504803898       -3.2759624128       -3.7955191211
 C         4.4450700730       -3.5993241658       -3.2818731239
 C         3.2845690169       -2.9735183525       -4.1367826791
 C         6.3786924006       -4.1664639914       -4.9216477781
 C         6.8740800042       -3.6613862102       -2.6278773610
 O         5.9990426142       -1.4534050381       -5.3137997487
 O         4.1615987411       -4.4645001515       -2.5220031714
 C         1.9638026059       -3.6385055680       -3.7225474211
 C         0.8487221716       -2.6317202411       -4.1269988980
 C         0.3919294620       -2.5311227644       -5.6885856151
 C        -1.2015867526       -2.8166347079       -5.7975637499
 C        -2.1568121101       -1.8842647142       -5.0805291917
 O         0.4883868705       -1.7818972585       -3.3743828496
 O        -1.5791088819       -3.7719546890       -6.3480152659
 C         0.5630988829       -1.0936745350       -6.0450382363
 C         1.0815015161       -3.6158591215       -6.6554915754
 C        -3.5356401893       -2.5685480681       -4.6815682656
 C        -4.6848492591       -1.5299246237       -4.7322248465
 C        -5.9998041531       -1.7254458093       -3.7233436945
 C        -5.5189804291       -1.5442322117       -2.2062920622
 C        -5.5693756608       -0.0896569644       -1.4906871133
 C        -7.0218864109       -0.7166874776       -4.2155108154
 C        -6.3645769345       -3.2021725692       -3.9950952271
 O        -4.7222367381       -0.7399423777       -5.6614444394
 O        -4.8403401176       -2.4655447311       -1.7941438036
 C        -5.2695687741       -0.1267259370        0.0163378974
 C        -5.9596541654        0.9610941243        0.8472268468
 C        -5.3795863379        1.2641154280        2.3360397984
 C        -3.9779308564        1.8669735700        2.1783342280
 C        -3.6697072425        3.2107089342        1.5154650837
 O        -7.0621626531        1.3025415758        0.4195634095
 O        -3.0071764977        1.2319610165        2.6916425779
 C        -6.3934754623        2.3165694377        2.9259575709
 C        -5.2448973528       -0.0374354713        3.2071295232
 H         1.6033789203        6.1281443145        4.5734868292
 H         2.2492868010        4.6249271226        5.4381477133
 H         2.5734744905        4.8977163374        3.8639262640
 H        -0.8101796865        3.1869351782        7.6573915044
 H        -2.5142015671        2.7528360446        7.1486177086
 H         0.3341586055        4.6566852242        7.1741717525
 H        -1.2484808097        5.5284283647        7.0700672666
 H         0.1279688816        6.2461839306        6.3070512493
 H        -2.4032152504        4.1221644874        3.9343504645
 H        -2.8799266706        5.1313636006        5.5027442083
 H        -2.0974092135        5.7897379514        3.9880514653
 H        -1.6212546203        0.5991699982        8.1846863026
 H        -1.6938756102        0.4298260062        6.4892354090
 H         2.0155113367       -1.2021124352        4.4780575146
 H         1.5126266225       -2.8005217981        5.0538212708
 H         2.8231980989       -0.1249122635        6.3644759962
 H         2.6622978429       -1.8470234281        6.7191850850
 H         2.7606493076       -0.6833034198        7.9879876528
 H        -0.8793026771       -1.8523715958        8.1641518598
 H         0.6231154937       -2.7020695051        8.0094856939
 H         0.3869562267       -1.3107815740        9.1798018274
 H        -0.3782235660       -2.6990373666        3.4081963673
 H         1.2757345733       -2.8089420214        2.6042924921
 H         2.1007342023        1.1205529673        0.8916057373
 H         1.8603932325        0.3242888557       -0.5629317101
 H         0.9002901877       -1.7501036193       -0.8987736439
 H         0.5108104687       -2.9159733792        0.4091817298
 H         2.0361011154       -2.0310673002        0.5008970155
 H        -1.9273814142       -0.9321774412        0.0165305075
 H        -1.7188231951       -2.1818413265        1.1891228835
 H        -2.0328334318       -0.7427804146        1.7171388575
 H         1.0835057641        2.3288736232       -1.8172923994
 H         1.2938615287        3.2255359851       -0.1452319473
 H         6.1617005651        1.1605293969       -4.0874882799
 H         6.0629038400        1.3951550219       -2.3527449320
 H         2.4544328265        1.8578150072       -4.9631414815
 H         1.4810167356        2.7478331977       -3.7140237683
 H         1.7732645660        1.0743582303       -3.5773103786
 H         4.6275522096        3.3493676321       -4.4979826609
 H         3.6263353634        4.3675492754       -3.4825684425
 H         5.1900902756        3.5742308060       -2.8795032526
 H         5.5823884103       -1.1057859396       -2.0575064274
 H         7.2404957957       -0.7314545015       -2.4557991569
 H         3.2077854566       -1.8897719543       -4.0376173668
 H         3.4514138798       -3.1711543563       -5.2186648267
 H         6.3895923122       -5.2438977655       -4.6660846829
 H         7.3212983936       -3.9072579934       -5.4684780786
 H         5.7622357828       -4.0838545132       -5.8481894949
 H         6.9890020261       -4.7527709020       -2.6978452008
 H         7.9236743069       -3.4708131040       -2.7641031702
 H         6.5190805561       -3.2660001524       -1.7051067603
 H         1.9283765892       -4.6107224981       -4.2405471065
 H         1.9490988909       -3.7403557769       -2.6867868936
 H        -1.5633455238       -1.6299932207       -4.1039725358
 H        -2.4160111797       -0.9925797845       -5.7123583919
 H        -0.2364129657       -0.4870529306       -5.6031016934
 H         0.8690476500       -1.0644221863       -7.1147121076
 H         1.5279283226       -0.6759118645       -5.6827659277
 H         0.8065687400       -4.6209464979       -6.4431776912
 H         0.7404397864       -3.3746476620       -7.6265677555
 H         2.1717612677       -3.4790925547       -6.6183567941
 H        -3.5304944915       -3.0657942976       -3.6954944781
 H        -3.6534746811       -3.3707762813       -5.4800720133
 H        -4.8770683894        0.5051079006       -2.0024815677
 H        -6.5015101572        0.4371434646       -1.5685546691
 H        -6.6618523636        0.3472855697       -4.2513620609
 H        -7.8754463186       -0.6779577329       -3.5326526175
 H        -7.4721578400       -0.8549310803       -5.1549111391
 H        -7.2658594683       -3.5503473561       -3.4799372144
 H        -6.6532694260       -3.3068239725       -5.0500630731
 H        -5.6062908294       -3.8464006490       -3.5560100253
 H        -5.5547373722       -1.0004620681        0.5213943603
 H        -4.1569527300       -0.1120060232        0.1920070907
 H        -4.5046687229        3.5197025298        0.8297042509
 H        -3.5440170265        3.9600178320        2.2681544873
 H        -2.8401539686        3.1060916235        0.8054834848
 H        -7.1858092251        2.3488868118        2.1071814736
 H        -5.8520795373        3.2547875847        3.2023036429
 H        -6.8371832816        1.8830788056        3.7782823814
 H        -6.2219998407       -0.2615391050        3.6933731939
 H        -4.7923711305       -0.9343882872        2.7028525118
 H        -4.6530279146        0.3072681858        4.0463472110
 Na       -0.8234137775        2.1092925052        2.3530206946
