155

 C        -8.5636310563       -9.2017172918        1.4124125209
 C        -8.3282444573       -7.7289233959        0.9170459463
 C        -7.1617891950       -7.2822361161        0.1726116532
 C        -5.9853540503       -6.9623953839        1.2084363766
 C        -4.8028433962       -6.0102065937        0.9230239238
 C        -6.5734044705       -8.3254794578       -0.7735144706
 C        -7.5401763853       -5.9640132764       -0.6253077354
 O        -9.2509959246       -6.9782539788        1.1688638057
 O        -5.8494287491       -7.6675694113        2.1610879704
 C        -5.1915157511       -4.6186471847        1.5158503923
 C        -4.1004149357       -3.5330413868        1.4826565968
 C        -4.6402363677       -2.0703963323        2.0916913617
 C        -4.2643242282       -0.9796100467        1.0754910762
 C        -2.8186478391       -0.7521460292        0.6511938251
 O        -2.9659068170       -3.6825034607        1.1545852556
 O        -5.0905310092       -0.2525874536        0.5920419091
 C        -6.2309473431       -2.0249877204        2.3464791481
 C        -3.8021691866       -1.9329872339        3.4828609927
 C        -2.6439661362        0.4276420012       -0.2637628688
 C        -1.4422411379        1.4189360176        0.1009844947
 C        -1.1411390389        2.5866488154       -0.9625495205
 C        -0.8843842670        3.8934269449       -0.2085716221
 C        -1.9826624431        4.8126207643        0.2356495278
 C         0.1012652305        2.0334517468       -1.6438117498
 C        -2.3198170911        2.8188411932       -1.9794392513
 O        -0.6447696309        1.1343526555        0.9683404721
 O         0.2496842377        4.1762951744        0.1709493360
 C        -1.5710680880        6.1167887398        0.9784501227
 C        -2.4802791206        6.4528360038        2.0882511568
 C        -1.8427130386        7.3053457725        3.2757357970
 C        -0.7057233472        6.5500885631        4.0435691853
 C        -1.1185941100        5.1042108225        4.3344592731
 O        -3.6533473186        6.1372029683        2.0854916988
 O         0.3022987837        7.0812290036        4.4507117961
 C        -1.4114085396        8.6448175329        2.5080382531
 C        -2.8913413132        7.6455821233        4.3356839129
 C        -0.1610570013        4.3149174630        5.1999158048
 C         0.8521008478        3.4411412830        4.4539874122
 C         1.8779610178        2.6460018730        5.2290910304
 C         3.0375357033        2.0775455349        4.3003805021
 C         4.2377418350        2.9955877667        4.0398005700
 C         2.4289474273        3.5683868702        6.4371171564
 C         1.1310018509        1.3968598331        5.7732869617
 O         0.7573031581        3.2690197467        3.2207414784
 O         3.0061466344        0.9082832475        3.9032218158
 C         5.0262037370        2.5028268441        2.8637105112
 C         4.5534723917        3.1339928909        1.4888247626
 C         5.0967444028        2.5273517243        0.2013778679
 C         4.4028479911        1.1508006510        0.0843586105
 C         4.9897054587        0.1811437314       -0.9279751534
 O         3.8562782703        4.1120525213        1.4949535222
 O         3.3546810261        0.9179561714        0.6775843022
 C         4.7010178183        3.3618328375       -1.0051999389
 C         6.5849181057        2.2739410214        0.3203139653
 C         4.1536376523       -1.1075639918       -1.1940612019
 C         4.2747746838       -1.7035736414       -2.6803203683
 C         2.9926771814       -2.3567573866       -3.2689859262
 C         2.3036622277       -1.1916214953       -4.1815160900
 C         2.9500073313       -0.9064272661       -5.5422618544
 C         3.3452657799       -3.7413740608       -3.9414945928
 C         2.0185018588       -2.7037060328       -2.0703635634
 O         5.4222705048       -1.7414033749       -3.1470699964
 O         1.2315473336       -0.7038988288       -3.8503853809
 C         2.0607515173       -1.5922624039       -6.6018203455
 C         2.8737795211       -2.3221318327       -7.6624547192
 C         2.2072802226       -3.1686430477       -8.7460688928
 C         1.5044528926       -4.4066624831       -7.9628859786
 C         1.5918028542       -5.7632309310       -8.5322288208
 O         4.1155299523       -2.5355907574       -7.4892615555
 O         0.7656682522       -4.1483783404       -7.0004029172
 C         0.9179888869       -2.3995781242       -9.3097838152
 C         3.1645525320       -3.6116329949       -9.8367305688
 H        -8.6830340821       -9.9856004006        0.6527721295
 H        -7.7086574467       -9.6109096492        1.9644726687
 H        -9.4484766088       -9.1076454450        2.0198950784
 H        -3.8182525324       -6.3006634217        1.2086247341
 H        -4.7615341022       -5.7667329058       -0.1798568210
 H        -5.5578374933       -8.0194920272       -0.9322982079
 H        -7.0838685005       -8.3989321579       -1.7298134476
 H        -6.6519137861       -9.3435997341       -0.3404039591
 H        -7.7352305778       -6.2550587442       -1.6755728522
 H        -8.5538268209       -5.5835047173       -0.1718147608
 H        -6.8060856531       -5.2387507331       -0.4266594649
 H        -5.9328151936       -4.2255484587        0.8301590436
 H        -5.7097354834       -4.6623449412        2.5112819871
 H        -2.2742756010       -0.6154885030        1.5072304687
 H        -2.4379157139       -1.6069398000        0.1735039914
 H        -6.4157922085       -1.0598627446        2.8421430039
 H        -6.3854821997       -2.8178545668        3.0543277690
 H        -6.7721527582       -1.8910969450        1.3554582623
 H        -4.2963795182       -2.5751894924        4.2453592539
 H        -2.7839159150       -2.3327161012        3.3602224187
 H        -3.8770344441       -0.8376957248        3.7162681903
 H        -3.6408504110        0.8981591666       -0.4523633776
 H        -2.2989114479        0.0891916352       -1.2823510855
 H        -2.7324975043        5.1582103167       -0.5286989060
 H        -2.6158370046        4.1930064518        0.9516840024
 H         0.9140843265        2.2637347725       -0.8729023356
 H         0.2518275404        2.5689148458       -2.5331661172
 H        -0.1482119414        0.9624324946       -1.8653500364
 H        -2.4885434050        1.9502855167       -2.6274248954
 H        -3.2430542306        3.2672370461       -1.6211844839
 H        -2.0344964062        3.5453938667       -2.7226303558
 H        -0.5696742993        5.9170694477        1.2666437322
 H        -1.5302201102        6.9704529457        0.3024527976
 H        -2.0657767541        5.1216318153        4.8605213493
 H        -1.3526770942        4.5579734108        3.4358253892
 H        -0.6500034619        8.5323837559        1.6827331740
 H        -1.1565302378        9.4199301781        3.2175876269
 H        -2.2725672484        9.1290862870        2.0378487009
 H        -3.8293054818        8.0080048748        3.8210283191
 H        -3.1690657589        6.6726725202        4.7502601039
 H        -2.4878090195        8.2427911910        5.1316089674
 H        -0.7048887359        3.7476586709        5.9006400962
 H         0.3793761811        5.1470630795        5.6968950760
 H         3.8450540484        4.0495116181        3.8399795422
 H         4.7512884305        3.0476225750        5.0185428386
 H         2.8940622571        2.9929827115        7.2573527519
 H         1.6686031183        4.2592800287        6.8187116513
 H         3.1513897541        4.1642605497        6.0224463424
 H         1.8557749435        0.7514989322        6.2021161971
 H         0.2783193043        1.6462897764        6.4905663825
 H         0.6614977749        0.9203156316        4.8717363864
 H         6.0517258986        2.8072933472        3.0684215816
 H         4.9754961514        1.4304575711        2.8580468934
 H         5.2109843119        0.6698194331       -1.9276431170
 H         6.0602745697       -0.0580424152       -0.5606510548
 H         3.6320075671        3.4392553853       -1.1681781739
 H         5.1401712437        2.8763052130       -1.8659358057
 H         5.1546141899        4.3059605176       -0.8083660219
 H         6.9953970584        1.8368140080       -0.6011967820
 H         7.0959781254        3.2681669406        0.5082129735
 H         6.7526162216        1.6346811712        1.1141345617
 H         3.1718270316       -0.6427036264       -0.9625710419
 H         4.5762820860       -1.8008482727       -0.5085950687
 H         2.9382065584        0.1744420130       -5.6791606982
 H         3.9675281703       -1.1231808264       -5.7241679168
 H         4.1573999614       -3.5944323708       -4.6139425073
 H         2.4881757683       -4.1993124056       -4.3935518771
 H         3.6228988639       -4.3670951658       -3.1130241303
 H         1.3560668400       -1.8039119580       -1.9556278299
 H         1.2286064210       -3.3594059578       -2.4316500320
 H         2.4639789386       -3.0993633418       -1.2076922461
 H         1.6708402574       -2.4277401737       -6.0638567282
 H         1.3058226309       -0.8909882724       -6.9216502784
 H         0.7183044920       -6.3841345319       -8.1917075404
 H         1.7824940468       -5.9750110108       -9.6065062541
 H         2.4320263249       -6.3463487686       -8.0065043992
 H         1.2030989735       -1.3863098875       -9.6307378209
 H         0.0925585319       -2.3343852859       -8.5882499544
 H         0.4511927496       -2.8152491743      -10.2185486809
 H         2.9030853062       -4.4039591916      -10.5006797113
 H         3.4286651910       -2.7826191669      -10.3628276809
 H         4.1226416050       -3.9765311410       -9.4155097095
 Na        1.5249449804        2.3833448083        1.3713690378
