155

 C         0.9396562872        4.8047987045        4.5647568713
 C        -0.4218174641        4.2765858097        4.2372473455
 C        -1.5770692512        4.3475111523        5.2545922711
 C        -1.9137998165        2.7890074734        5.5797587981
 C        -1.8710973790        2.2541622846        7.0369540021
 C        -1.2926843437        5.2893204148        6.5547884634
 C        -2.8486296359        4.9285707644        4.5172245757
 O        -0.6314747832        3.8558095780        3.0667144495
 O        -2.0057011980        1.9850603139        4.6809445645
 C        -1.6265420264        0.7094705811        7.1601818873
 C        -0.0702185683        0.2701677977        7.1447595985
 C         0.3483595223       -1.1788124011        7.1385269655
 C         0.8573375109       -1.6029826278        5.7837230026
 C         1.9098643645       -0.7316915404        5.1499885382
 O         0.7495710177        1.2012824018        7.0605198903
 O         0.5751439383       -2.6799584185        5.2604434980
 C         1.6274462265       -1.3414902544        8.0520845603
 C        -0.8379385373       -2.1954138567        7.5827920782
 C         2.1337294206       -0.9822435958        3.6254061890
 C         0.8143186004       -0.5194370827        2.8459341121
 C         0.7959811627       -0.9477553744        1.3060139839
 C         1.0644814137        0.4735921035        0.6033030075
 C         2.3511603247        0.8086858923       -0.1684856750
 C         1.8000068332       -2.0394355865        0.8904755229
 C        -0.5904155134       -1.4770620864        0.8493871939
 O         0.0446174140        0.3220418211        3.2990979268
 O         0.2022400800        1.3406921400        0.7766432489
 C         2.3771070713        2.3009593937       -0.6373914389
 C         3.6343664410        2.8075665094       -1.1885878063
 C         3.9323001382        2.5133673113       -2.7714434829
 C         4.7283039736        1.1628473930       -2.7308992311
 C         6.2715381975        1.1761779823       -3.1107170502
 O         4.4539868216        3.3637550697       -0.4815363403
 O         4.1725936117        0.1701141937       -2.4053280674
 C         2.7090939216        2.2577743477       -3.7022157986
 C         4.6510006170        3.7249695946       -3.3805557002
 C         6.8695047398       -0.2491547068       -3.1227931443
 C         6.5919220640       -0.9154624548       -4.4696291142
 C         6.4363177658       -2.4520932821       -4.6861716649
 C         5.1558796786       -3.0829642882       -3.9610143421
 C         3.7625295318       -2.4786768479       -4.1543447592
 C         6.3080433723       -2.7165262087       -6.2456397364
 C         7.6378533746       -3.2920127016       -4.2464048128
 O         6.6283992419       -0.2746578793       -5.5137546672
 O         5.3440613229       -4.0872669133       -3.2651689872
 C         2.7189853244       -3.0883547353       -3.1634771627
 C         1.3666298400       -2.3583590901       -3.2670500060
 C         0.3664404716       -2.4908933288       -4.5414796422
 C        -0.9841285128       -2.9702197368       -4.0209216932
 C        -2.2875884504       -1.9683706644       -3.8824335057
 O         1.0110210641       -1.5925597931       -2.4273128120
 O        -1.0173854649       -4.1015368972       -3.5140495528
 C         0.3608942865       -1.2686249149       -5.3698367432
 C         0.7841023009       -3.6142185472       -5.4966658462
 C        -3.5694890334       -2.3790743026       -4.7265514520
 C        -4.7690412018       -1.4909830952       -4.2092466038
 C        -6.1885088400       -2.1134234941       -4.1427743101
 C        -6.7837909912       -1.7258765821       -2.7380270269
 C        -7.4268601491       -0.3599989312       -2.4736389581
 C        -7.0467664563       -1.4204473480       -5.1917421550
 C        -6.1740801713       -3.6661421985       -4.4192919842
 O        -4.5987359927       -0.3252611162       -3.8861615502
 O        -6.8750632788       -2.5707563996       -1.8948238151
 C        -7.4875351401       -0.0145369347       -1.0195309701
 C        -6.2479919334        0.5710482566       -0.4684739370
 C        -5.9573188806        0.5538666132        1.0599801067
 C        -4.6562876277        1.3066980986        1.4051084173
 C        -4.5219600394        2.7341807652        0.8883990867
 O        -5.3865568497        1.1084700673       -1.1884656146
 O        -3.6863710822        0.7932909986        2.0782703224
 C        -7.1294847896        1.4095502810        1.6153858884
 C        -5.9322745947       -0.8254786530        1.6973104341
 H         1.0007137833        5.8387852658        4.8991916618
 H         1.4071909538        4.1382799917        5.2766712639
 H         1.5330350161        4.7702876116        3.6169097970
 H        -1.1342711499        2.8127923748        7.5778909212
 H        -2.8218207168        2.6677681950        7.4995576991
 H        -0.5655377492        4.8400189080        7.2617186483
 H        -2.2475412668        5.3829545886        7.0100607934
 H        -1.0106489371        6.3142247077        6.2211078639
 H        -3.2887139082        4.2504249567        3.7592692291
 H        -3.5933455602        5.0896961154        5.2730120481
 H        -2.4106076372        5.7196524583        3.8317785135
 H        -2.0278371421        0.4546955420        8.0898449279
 H        -2.0622508604        0.1987800754        6.2647668804
 H         1.8023576680        0.3463587106        5.4163329146
 H         2.8160987878       -1.1405219566        5.6453618411
 H         2.2685117431       -0.4520512594        8.0365612683
 H         2.2129085456       -2.2241174651        7.7555433690
 H         1.1905262614       -1.4811877654        9.1054043064
 H        -1.5738035348       -2.0712499321        6.8188019889
 H        -0.3841005199       -3.1634749636        7.5631464740
 H        -1.1845388378       -1.9135430101        8.5426678068
 H         2.3280256353       -2.0153611675        3.4063257088
 H         2.9529575732       -0.4218691786        3.1764937561
 H         3.2723442596        0.4715981439        0.3049852152
 H         2.3810463189        0.2945048204       -1.1770304117
 H         1.7353312734       -2.2366866252       -0.1194393897
 H         1.4781640386       -3.0028222810        1.3759458945
 H         2.8614605060       -1.7668119536        1.2113947085
 H        -0.7309414750       -1.6502500804       -0.1676253518
 H        -0.8003272921       -2.4370264467        1.3127254178
 H        -1.3945344135       -0.9852847639        1.2551508922
 H         1.6288368842        2.4683345661       -1.3538185626
 H         2.1404870386        2.8584163694        0.2891225919
 H         6.4009705002        1.5913995996       -4.1304407580
 H         6.8452629277        1.7256143328       -2.3760052230
 H         2.9172281785        2.2549374349       -4.7426894421
 H         2.1110448903        3.1798355546       -3.5441621688
 H         2.1401416050        1.4245393190       -3.2513972710
 H         4.4829177040        3.7029522565       -4.4538515253
 H         4.2318262553        4.6900511381       -2.9385581110
 H         5.7540920412        3.8327807409       -3.1192758864
 H         6.6103779381       -0.9174967193       -2.2893468549
 H         7.9775540569       -0.1631924074       -3.0359787298
 H         3.8306514137       -1.4661482435       -3.8591618494
 H         3.4124348824       -2.6079038334       -5.2384883705
 H         6.0261633260       -3.8844049818       -6.4116974696
 H         7.1982864276       -2.3984688624       -6.7251680100
 H         5.3825294591       -2.1577851727       -6.4141981044
 H         7.4181937561       -4.3611756665       -4.4517089759
 H         8.5778447495       -2.9101626043       -4.6133223734
 H         7.6947450947       -3.3518055615       -3.1497401012
 H         2.5345399680       -4.1584008017       -3.3590536560
 H         3.0254363747       -2.9301940381       -2.1239145405
 H        -2.6756387495       -2.0108265096       -2.8162292117
 H        -2.0136043406       -0.9811894208       -4.1050811993
 H         0.3974301597       -0.3209862362       -4.8147262523
 H        -0.5500714639       -1.3136462531       -5.9846328052
 H         1.1892611441       -1.3314369447       -5.9799002718
 H         0.9516928333       -4.5112903126       -5.0023190472
 H         0.1885922594       -3.7868678426       -6.3652956083
 H         1.8079167539       -3.5151285461       -5.8207905060
 H        -3.7411388408       -3.4493973736       -4.6906537766
 H        -3.4564316329       -2.1475195540       -5.7675664956
 H        -6.9715401068        0.4977092320       -3.0380886249
 H        -8.4330988003       -0.5039918097       -2.8546234814
 H        -6.7042606717       -0.3586366088       -5.3932930276
 H        -8.0341514739       -1.2418938004       -4.7396155188
 H        -7.2393482811       -1.8942041127       -6.1305121547
 H        -7.2355920142       -3.9892547807       -4.3009051928
 H        -5.9238378290       -3.8491858611       -5.4705006983
 H        -5.5252745713       -4.1038611401       -3.6376864430
 H        -8.3503045121        0.7153328517       -0.9539780276
 H        -7.8932155323       -0.9052822295       -0.5017199616
 H        -5.0933146671        3.4172695933        1.5975409306
 H        -3.4926163148        2.9735674065        1.0589284041
 H        -4.8498722625        2.8672921754       -0.1000800554
 H        -7.8614817938        0.8878619220        2.0815742209
 H        -7.6514388668        1.8826825415        0.8550992203
 H        -6.9043520994        2.2010985999        2.3667896838
 H        -6.9749361201       -1.2850993037        1.6484792886
 H        -5.1850133909       -1.5636286142        1.2875375763
 H        -5.6380666325       -0.7795489979        2.7040768620
 Na       -1.7167859947        1.6147214316        2.4182677298
