155

 C         0.5589271378        4.9655044998        4.3628739393
 C        -0.7074435298        4.0972582759        4.1809939090
 C        -1.8846101192        3.9320382715        5.2132180774
 C        -2.2757616799        2.4663261827        5.3742871578
 C        -2.4060186021        1.6867264172        6.6812774331
 C        -1.4977614006        4.5730970226        6.5111864056
 C        -3.0071826215        4.8415408881        4.5543004546
 O        -0.8732666504        3.6498668522        3.0907950503
 O        -2.5795559676        1.9058158634        4.2965711328
 C        -1.7330297948        0.2720455224        6.6945686278
 C        -0.3519095511        0.1918968421        7.2182404666
 C         0.4511684165       -1.1743794930        7.2772788966
 C         0.8854321448       -1.3779398606        5.6917081081
 C         2.1078302992       -0.7839837118        5.1130788395
 O         0.2403357221        1.1960638625        7.7063211674
 O         0.0582906580       -1.9981424942        5.0620425011
 C         1.6314911700       -1.0727722495        8.2354073363
 C        -0.3783972490       -2.3865123009        7.7347091386
 C         2.1655740532       -0.9212702803        3.6334659620
 C         0.8841354124       -0.5041386641        2.7456660911
 C         0.9105948292       -0.9374785347        1.2924527881
 C         0.7882947964        0.4429060497        0.3835553538
 C         1.9749505541        0.9011145169       -0.5131041026
 C         2.1980694008       -1.8051328293        0.9344851312
 C        -0.3330530964       -1.7556615354        0.9534180334
 O         0.0987782990        0.3266287379        3.1895740075
 O        -0.2081884336        1.1712571838        0.3787303761
 C         1.9419919773        2.4277547649       -0.8537597569
 C         3.3874279310        3.0548235684       -1.0450750816
 C         4.1250114096        2.8786770284       -2.4465727660
 C         4.9453454263        1.4260709429       -2.5181356328
 C         6.2976055824        1.3811246410       -3.1920849072
 O         4.0438186463        3.6049154404       -0.1641869317
 O         4.4853910363        0.5334442626       -1.8196824908
 C         3.1569617911        2.7468738403       -3.6269019006
 C         5.1314528934        4.0321187404       -2.7409310105
 C         6.8227213285       -0.0229871559       -3.4234918586
 C         6.1075965908       -0.7895644222       -4.5221897858
 C         6.3786317133       -2.3531809919       -4.7409400492
 C         5.2175941959       -3.0502237227       -4.0307865084
 C         3.8798872396       -2.2360655140       -3.7324654273
 C         6.5410340505       -2.5996162310       -6.2995996841
 C         7.6528073861       -2.8005401346       -4.0663560554
 O         5.2671674717       -0.2545792504       -5.2375799277
 O         5.2806784524       -4.2211012561       -3.6860846577
 C         2.7438748465       -3.2131987604       -3.4222842058
 C         1.3867935825       -2.5305879328       -3.2654012705
 C         0.3492769354       -2.6437215115       -4.3473559501
 C        -1.0468791029       -2.8525506267       -3.5777084313
 C        -2.1783626288       -1.7597725009       -3.5034195954
 O         1.1359714704       -1.8640838799       -2.2315800400
 O        -1.3690361707       -3.9864374000       -3.2027665854
 C         0.3304654621       -1.2357966031       -5.1008199761
 C         0.5692342234       -3.7868819779       -5.3118390622
 C        -3.4971425083       -2.4966788757       -3.8516487257
 C        -4.6963444158       -1.5541355520       -4.2463548483
 C        -6.0778797415       -2.2110877624       -4.1048127294
 C        -6.6178358292       -1.5987823495       -2.7207192808
 C        -6.9891199291       -0.0881615076       -2.7277834619
 C        -6.9823083592       -1.7687088706       -5.1778281135
 C        -6.1364732396       -3.7651879850       -4.0461593700
 O        -4.6151208535       -0.3729402752       -4.5511501848
 O        -6.8128540003       -2.3343417305       -1.7921979075
 C        -7.0525342105        0.4309299107       -1.3445036713
 C        -5.6948507774        0.5108424312       -0.7273468504
 C        -5.5819110424        0.4769245378        0.8936941539
 C        -4.2051365019        1.1438397740        1.1498076223
 C        -4.1469629449        2.7199433037        0.8339473418
 O        -4.6982280251        0.6289332478       -1.4479474436
 O        -3.2954786363        0.4244018965        1.5637145029
 C        -6.7187393070        1.2465860717        1.5597769631
 C        -5.5629784855       -0.8902977419        1.5202655900
 H         0.3432083204        6.0071850154        4.2736416610
 H         1.2152753110        4.6701527880        5.2149918489
 H         1.1160455671        4.7593916979        3.4665370809
 H        -1.8213051606        2.4127729592        7.2780023919
 H        -3.4460207934        1.6674440229        7.0359240012
 H        -0.5692922758        4.1827516277        6.9679562286
 H        -2.3330581216        4.4509935322        7.2376728105
 H        -1.3355443501        5.6421815910        6.4186611208
 H        -3.4721816715        4.2113758639        3.7703898702
 H        -3.8250348699        5.1264682183        5.3073613313
 H        -2.6053149764        5.7840179529        4.2332389095
 H        -2.4008103968       -0.4041650436        7.2981235909
 H        -1.5598023754       -0.0431932723        5.6724575611
 H         2.2069552648        0.2714159441        5.4538125690
 H         2.9474749138       -1.3306478224        5.5747637751
 H         2.3708665793       -0.3661249110        7.9297178349
 H         2.1076095355       -2.0252553994        8.3320234782
 H         1.1266593965       -0.8481207866        9.2487185738
 H        -1.1581715691       -2.5137672101        7.0107017877
 H         0.2918519307       -3.2006882872        7.7116115126
 H        -0.6716986496       -2.1317468308        8.7018734534
 H         2.2688735504       -1.9595599242        3.3577858046
 H         2.9521396961       -0.3536296311        3.2293440445
 H         2.9721405216        0.8416747027        0.0005766766
 H         1.9201467536        0.2012585934       -1.3459490053
 H         2.1922126138       -2.0933900737       -0.1319635169
 H         2.1685562386       -2.6264008730        1.5959015177
 H         3.1190744557       -1.1573792272        1.0894153375
 H        -0.5084972057       -1.8700829536       -0.1108803024
 H        -0.3039750555       -2.7371586184        1.3734365830
 H        -1.2613043017       -1.2680387049        1.2516718095
 H         1.2579510483        2.5370576552       -1.7681090447
 H         1.3248952136        2.9677665864       -0.0966757517
 H         6.2868919335        1.9552854011       -4.0828613003
 H         7.0489594711        1.8431933414       -2.5157613596
 H         3.7949822998        2.2683851498       -4.3977881377
 H         2.7718703129        3.7221030340       -3.9615260627
 H         2.4399842255        2.0028404738       -3.4969521826
 H         5.2688276875        4.2999720038       -3.8235656021
 H         4.7591724536        4.9055330597       -2.1998262984
 H         6.0793483163        3.7061928186       -2.4051763011
 H         6.7610520399       -0.6383695753       -2.5172431952
 H         7.8421908969        0.0515023872       -3.8198797608
 H         4.2318990738       -1.6817923915       -2.7583515551
 H         3.6063820656       -1.5166464327       -4.4834220303
 H         6.2868062021       -3.7481605832       -6.2686169414
 H         7.5696306137       -2.4796686824       -6.5614217668
 H         5.8830374999       -1.8627411997       -6.7689036943
 H         7.6219845941       -3.9219000355       -4.1398642501
 H         8.5655544288       -2.3810417077       -4.5642745274
 H         7.6683140994       -2.4938387213       -3.0221203434
 H         2.8564218998       -3.8703286195       -4.2634622682
 H         2.9906582371       -3.7826456586       -2.5096373692
 H        -2.2327051304       -1.3178765550       -2.5401965394
 H        -1.9654350440       -0.8288266291       -4.1182480740
 H         0.4779862585       -0.5118952842       -4.3279294624
 H        -0.5480255584       -0.9179010779       -5.6698442268
 H         1.2513730985       -1.2285628670       -5.6280730874
 H         0.5783377492       -4.7334195114       -4.8199975688
 H        -0.2679710933       -3.9543622295       -5.9576014265
 H         1.3375000435       -3.6805399388       -6.0473179734
 H        -3.7624359903       -3.0389632236       -2.8776621007
 H        -3.1877932120       -3.1250702665       -4.6726987184
 H        -6.3010180673        0.5154046271       -3.3427507513
 H        -8.0634992722       -0.0627187485       -3.1286157397
 H        -6.9741137281       -0.6914376559       -5.2718335919
 H        -7.9960648004       -2.1680736630       -5.0385203347
 H        -6.6660880151       -2.2513362880       -6.1416783040
 H        -7.1546322823       -3.9192793710       -4.2999660982
 H        -5.3819145969       -4.2673737221       -4.6958860843
 H        -5.9456636363       -4.1769706520       -3.0525030896
 H        -7.4349075897        1.4834719611       -1.5997382852
 H        -7.9271315956       -0.0066875868       -0.7905917430
 H        -4.8108071071        2.8902360660       -0.0911152212
 H        -4.4476481359        3.2337875597        1.7028221332
 H        -3.1605956883        2.9627218473        0.4786227044
 H        -7.6604915061        1.3282205570        0.9958811444
 H        -6.4237455203        2.2787837666        1.8452010097
 H        -7.0331275271        0.8770107664        2.5263454710
 H        -6.5539797809       -1.2435269559        1.8476956316
 H        -5.3508529428       -1.6636258122        0.8145829664
 H        -4.9414040411       -0.8887437389        2.4208106840
 Na       -1.5818407078        1.4291932757        2.2894643692
