155

 C         0.2860678867        4.9664113546        4.3603917187
 C        -0.7517836010        3.9096567253        4.1551480757
 C        -1.9127053974        3.7879960464        5.1830817570
 C        -2.4051752441        2.3150415619        5.3550452376
 C        -2.4327540547        1.6257453984        6.8275742716
 C        -1.5464055827        4.4662740803        6.4669954841
 C        -3.1093123295        4.5829721037        4.5962388601
 O        -0.8210352351        3.2934261365        3.1116948992
 O        -2.7572406345        1.7160120269        4.4082748163
 C        -1.8431425669        0.2092419230        6.5683434111
 C        -0.4251244029        0.1782267574        7.3629022140
 C         0.3997189820       -1.1577813020        7.2626898057
 C         0.6604394576       -1.5128012423        5.7869734318
 C         1.8655554773       -0.6666365829        5.1207230254
 O        -0.0412442711        1.1972023498        7.7598965398
 O        -0.0298584274       -2.2188007483        5.0598184093
 C         1.8111101328       -0.8133809665        7.9854276516
 C        -0.4764753174       -2.2600456463        7.9107495074
 C         2.0961486147       -1.0996738838        3.6826116221
 C         1.2439999114       -0.2834692366        2.7789269493
 C         1.0609182392       -0.7271168193        1.2931788570
 C         0.7613885706        0.5261435694        0.2740829014
 C         2.0185014221        0.9276090709       -0.4445835063
 C         2.2544221547       -1.5670655436        0.7142893642
 C        -0.2831591857       -1.5629855212        1.1545878006
 O         0.5652403918        0.5768842611        3.2932617670
 O        -0.2393461382        1.1723198962        0.2800902867
 C         1.9422118056        2.4127474872       -0.9917245839
 C         3.3636307796        2.9033565619       -1.1493527033
 C         4.2211703056        2.8880105854       -2.4549022428
 C         5.0754311612        1.6335697463       -2.5183089026
 C         6.3209200704        1.5656388178       -3.4180499795
 O         3.8922828056        3.4521392087       -0.2012178980
 O         4.7978731564        0.6777899866       -1.7811981286
 C         3.3192892181        2.8744113820       -3.7054403384
 C         5.0547702601        4.1469695121       -2.4305507373
 C         6.8823828320        0.0839613053       -3.3342930044
 C         5.9444939197       -0.7062736276       -4.3121900635
 C         6.2942748239       -2.1571947017       -4.6787010610
 C         5.1066844598       -3.1320583419       -3.9651156426
 C         3.7992936572       -2.4743137875       -3.6748471186
 C         6.2270083203       -2.3637656242       -6.2456039254
 C         7.6861228053       -2.6729315328       -4.0704896820
 O         5.0345252730       -0.2006178107       -4.9392007157
 O         5.4526201219       -4.2711329244       -3.7866306337
 C         2.6550034264       -3.4547626476       -3.2819000546
 C         1.4147958858       -2.5909409602       -3.2035876724
 C         0.2925143863       -2.5894891856       -4.3257851237
 C        -1.0479738467       -2.8002562001       -3.5677382064
 C        -2.2497679354       -1.8975325168       -3.6653750167
 O         1.2554460026       -1.7296976353       -2.3511957343
 O        -0.9650218319       -3.8182397260       -2.9488910970
 C         0.3352817112       -1.3191557303       -5.1193689639
 C         0.4650606282       -3.7067667696       -5.4440939741
 C        -3.6649713730       -2.5084160572       -3.4297612317
 C        -4.7123417285       -1.6805533737       -4.1325632828
 C        -6.2365622617       -2.2072797669       -4.0478136766
 C        -6.7411283267       -1.5630895739       -2.7732661263
 C        -7.0629403850       -0.0784555555       -2.9097969272
 C        -7.0191896879       -1.7754581203       -5.3282090716
 C        -6.1894074909       -3.7214020066       -4.0043272822
 O        -4.4739170127       -0.6774625584       -4.7368974482
 O        -6.7230010380       -2.1694959089       -1.7110568469
 C        -6.9386151500        0.6280836816       -1.4697662831
 C        -5.6138076297        0.4218528578       -0.7764037673
 C        -5.5754034520        0.5106640321        0.7137151478
 C        -4.0889496443        1.1139116599        1.1313242414
 C        -3.8155137345        2.6095168789        0.9010774327
 O        -4.5850738677        0.4567052376       -1.3545863331
 O        -3.3301139815        0.2936499581        1.5199581202
 C        -6.6970862244        1.2580545325        1.4091616206
 C        -5.5464173124       -1.0310487944        1.0944796131
 H        -0.3202628413        5.9046598135        4.3799208332
 H         0.7160989996        4.7793226582        5.3067407193
 H         1.0772388381        5.0818177406        3.6220649633
 H        -1.9921569367        2.1781605061        7.6547013559
 H        -3.4947041149        1.5497968596        6.9896289608
 H        -0.7760010241        3.9839975476        7.0613092639
 H        -2.4042928682        4.5435708233        7.1665633238
 H        -1.1222351701        5.4663913733        6.2766080784
 H        -3.5377297831        4.0732991106        3.7837080617
 H        -3.8435886580        4.7446550731        5.3223699698
 H        -2.8271923551        5.5994988357        4.4357459314
 H        -2.5855323113       -0.4486021604        6.9947851514
 H        -1.6960427140        0.0591698584        5.4560728942
 H         1.5864302405        0.3616656626        5.1801537720
 H         2.8191992909       -0.7334792014        5.6410464788
 H         2.1675854573        0.2118681521        7.7242383828
 H         2.5621846744       -1.5645393056        7.6984197293
 H         1.6410021659       -0.8126226006        8.9743463094
 H        -1.2859961067       -2.3919967231        7.2075227659
 H         0.1830301601       -3.1209362917        8.1116269493
 H        -0.7459702971       -1.7437111140        8.8678716539
 H         1.8542517541       -2.1543075641        3.4506190056
 H         3.1365201043       -0.7886234790        3.3082148625
 H         2.8118183087        0.9069383682        0.2613266701
 H         2.2073438539        0.2616551091       -1.3126124973
 H         2.1618836601       -1.5232951306       -0.3919541805
 H         2.2268749674       -2.5384802276        1.2314059685
 H         3.1248372680       -1.1144515024        0.9997292567
 H        -0.5433231639       -1.9346903664        0.1282780390
 H        -0.2917549683       -2.4790984073        1.8102580381
 H        -1.2093587344       -0.9397235630        1.3649055206
 H         1.3166956728        2.1388232896       -1.7959660260
 H         1.3894997104        3.1266490446       -0.3974683487
 H         6.1036340425        1.9121360844       -4.4763241253
 H         7.1748735841        2.1576253032       -3.1055856086
 H         3.8568525154        2.9319454663       -4.6142686726
 H         2.6571227730        3.6730529043       -3.5316510036
 H         2.7295939900        1.9345763815       -3.7533349496
 H         5.0825461180        4.5333254676       -3.4235408250
 H         4.5526761581        4.8067331315       -1.8133207119
 H         6.0587093688        3.9502310510       -2.1020569710
 H         6.8483461012       -0.3595552954       -2.3433860441
 H         7.8734938142        0.1189823456       -3.7610010342
 H         3.8474843754       -1.7513356906       -2.9308175860
 H         3.6409658507       -1.9291171671       -4.6587057522
 H         5.4168055116       -2.8771790387       -6.4242063901
 H         7.2079617234       -2.8203629482       -6.4715695033
 H         6.2374769115       -1.3680171711       -6.6267395042
 H         7.8025444037       -3.6349322338       -4.4920640013
 H         8.5557741735       -2.0968328749       -4.3493284905
 H         7.5777258184       -2.6963196655       -2.9716189312
 H         2.6154085599       -4.3398805969       -3.9383179288
 H         3.0095103777       -3.7458129150       -2.2935856246
 H        -2.2279900534       -0.9629037289       -3.0323159750
 H        -2.2199247518       -1.4569705898       -4.6370062174
 H        -0.0024929483       -0.4358734311       -4.5415253923
 H        -0.4315075152       -1.5104427890       -5.8935843672
 H         1.3362446264       -1.1517346574       -5.7070048836
 H         0.5421282874       -4.7649630421       -5.1325308663
 H        -0.2737956836       -3.8425575363       -6.2427645054
 H         1.3442722291       -3.3880794282       -6.0201752054
 H        -3.8640558487       -2.5144153182       -2.3908788286
 H        -3.5971463697       -3.5148729546       -3.9418817039
 H        -6.2239488279        0.2372732863       -3.5346736826
 H        -7.9771943051        0.0156353010       -3.4249147283
 H        -6.4375342444       -1.1412537384       -6.0223162235
 H        -7.9127179879       -1.2258448027       -4.9909575635
 H        -7.3747967123       -2.6616635589       -5.8440008507
 H        -7.2444192371       -4.1219421198       -4.0956650293
 H        -5.5314959483       -4.0980707488       -4.7953020091
 H        -5.8278484585       -4.0808871764       -3.0172765099
 H        -7.1747827148        1.6399312851       -1.5320117228
 H        -7.7351660340        0.2219582935       -0.8857772247
 H        -3.6961744861        2.7559670382       -0.0993439989
 H        -4.7174342100        3.0783250196        1.3801023719
 H        -2.8681954449        2.8627678522        1.4445868556
 H        -7.7057455051        0.8728404949        1.0884267150
 H        -6.7068612726        2.3607107468        1.3118163341
 H        -6.7525583012        1.1129767311        2.4825944893
 H        -6.3723383710       -1.5623470944        0.7308807954
 H        -4.7371118577       -1.5034498287        0.5599569001
 H        -5.5614749951       -1.1543035372        2.1992517442
 Na       -1.3757991226        1.4482838623        2.2384688320
