155

 C        -0.7742004708        4.3411336584        5.7488136988
 C        -1.4920937672        3.5179552802        4.6978743089
 C        -2.8171716160        2.8122287083        5.0820254250
 C        -2.6505055031        1.2299201423        5.1600745387
 C        -2.8008163951        0.4171100790        6.4974267453
 C        -3.3678506578        3.3603522122        6.3839686423
 C        -3.8188567477        3.1051669142        3.9403593176
 O        -1.1406796631        3.5753514020        3.4922372987
 O        -2.6123212312        0.5903198569        4.1024342028
 C        -1.6528558414       -0.4929099159        6.6181767494
 C        -0.4431287523        0.2445321139        7.3465326623
 C         0.7392107151       -0.6636336440        7.8539390092
 C         1.2336825092       -1.2923048109        6.4697864494
 C         2.3972490700       -0.5443111441        5.6887911410
 O        -0.4650523646        1.4989791996        7.4263041183
 O         0.7294087575       -2.3125345760        6.1031907102
 C         1.7922706692        0.0934831610        8.7260094695
 C         0.2298761040       -1.8727347642        8.7753047621
 C         2.3974669141       -1.1038397385        4.2490808523
 C         1.3912454788       -0.4528826049        3.3672840937
 C         1.2980957166       -0.8372513868        1.8207459791
 C         1.3445078655        0.4374306788        0.9289617118
 C         2.5021454840        0.6057930784       -0.0790038637
 C         2.3081808011       -1.8753513524        1.3427996638
 C        -0.1581460918       -1.5424771799        1.4577558868
 O         0.5621363452        0.3330254360        3.7893486605
 O         0.6259418111        1.4060133208        1.0615110836
 C         2.4077826933        1.6562587182       -1.1361696291
 C         3.2703344983        2.9250551535       -0.7196670014
 C         4.4633824848        3.2350897777       -1.7366228260
 C         5.4862386100        2.0410882588       -1.6556692440
 C         6.5971625411        2.1222829135       -2.6354417108
 O         3.0663861607        3.5538667697        0.3178151091
 O         5.3453269182        1.2798294876       -0.7247009844
 C         3.8332941514        3.6872750716       -2.9954517073
 C         5.2813981769        4.3588861616       -1.0426952425
 C         6.9622872101        0.8394487845       -3.2933391836
 C         6.0070050520        0.4215565570       -4.5059554465
 C         6.0152171005       -1.0905969437       -4.9373178737
 C         4.9361792038       -1.7322563995       -3.8394136578
 C         3.3387609487       -1.5302731113       -4.1730381343
 C         5.4907697031       -1.2295642688       -6.3974562977
 C         7.3895682997       -1.8044420672       -4.7647172210
 O         5.2949971393        1.2605509594       -5.0368671326
 O         5.2995699653       -2.3503890464       -2.8794180020
 C         2.6162141260       -2.4962045873       -3.2858389574
 C         1.0287061753       -2.1964596878       -3.3725989764
 C         0.0425363607       -3.0781713151       -4.3578300582
 C        -1.3970108860       -3.0879312533       -3.6826532797
 C        -2.5392971230       -2.9303005088       -4.6772020964
 O         0.6121683590       -1.3711727537       -2.6146118022
 O        -1.6050959897       -3.4463866436       -2.4919325614
 C         0.1542893912       -2.3524890010       -5.6620128065
 C         0.5841730558       -4.5590296069       -4.4296897822
 C        -3.9441822012       -3.0768293704       -3.9040282600
 C        -5.1517694087       -2.9281810480       -4.9859493272
 C        -6.6387671411       -2.9557150351       -4.3923909609
 C        -6.6494553761       -2.0504592290       -3.1525757327
 C        -6.9029881229       -0.5886740863       -3.5026878124
 C        -7.6322651387       -2.3999195457       -5.4501090760
 C        -7.0582082590       -4.4305808882       -4.0605828447
 O        -5.0033324976       -2.8111428275       -6.1664565068
 O        -6.6620708045       -2.4130346181       -1.9870797088
 C        -6.7179788569        0.3334023194       -2.2440295801
 C        -5.1765778476        0.5818322196       -1.9496698155
 C        -4.8075552670        0.9678116238       -0.4925253964
 C        -3.2285507402        1.3714959605       -0.2046082382
 C        -2.5438786015        2.5143294303       -0.8703130256
 O        -4.3849513259        0.5642113630       -2.8393529937
 O        -2.6498100242        0.7337225484        0.6260579136
 C        -5.5393394398        2.2852413911       -0.0340273774
 C        -5.1900046964       -0.1654874279        0.4557847363
 H        -1.2687661421        5.2008236327        6.0705856643
 H        -0.4266934309        3.7810131849        6.6388444157
 H         0.0988353647        4.7874830939        5.2376734745
 H        -2.8685038893        1.0011355013        7.4254525593
 H        -3.6123417253       -0.2669956799        6.2401556436
 H        -2.6323952228        3.3006478151        7.2063632071
 H        -4.3071989893        2.8934806248        6.7230384368
 H        -3.6220216541        4.4298234586        6.3437310136
 H        -3.5868586643        2.5049339275        3.1030489528
 H        -4.8564730474        2.9186569184        4.1405377102
 H        -3.8047086917        4.1765479404        3.6693140508
 H        -1.9360091322       -1.2366754820        7.3649311574
 H        -1.4019857021       -0.9897562684        5.6743139812
 H         2.2846582567        0.4998930879        5.7318616103
 H         3.3517617130       -0.8701236758        6.1893447545
 H         1.8239247388        1.1614782571        8.6025750697
 H         2.7955586163       -0.3098280092        8.7552573779
 H         1.3987403418        0.0125822076        9.7154322602
 H        -0.2829031974       -2.5846380655        8.0839457799
 H         1.0981487337       -2.3879940296        9.1677873566
 H        -0.4134630088       -1.4609445391        9.5153802294
 H         2.2013663806       -2.1850041614        4.1986829716
 H         3.3636872607       -1.0598256542        3.6583110996
 H         3.3580551513        0.8108406289        0.6087290071
 H         2.8638838695       -0.2892719003       -0.5551127718
 H         2.4103846387       -2.1113322327        0.3151533134
 H         2.0173351206       -2.8487903970        1.9150637552
 H         3.2482071217       -1.6577424436        1.8452026745
 H        -0.2670233567       -1.3876202545        0.3690255397
 H        -0.1222366465       -2.6672364437        1.7119905672
 H        -1.0161024134       -1.1131509539        1.9951819163
 H         2.8730157747        1.3763463842       -2.0542497216
 H         1.4384994466        1.9880576279       -1.3312950536
 H         6.3844773337        2.7872389169       -3.4975603411
 H         7.5570165976        2.3598445304       -2.1704490731
 H         4.5247407602        3.9787160045       -3.7596625375
 H         3.2915650197        4.6427101950       -2.8754204713
 H         3.0907339254        3.0164896723       -3.3751813559
 H         5.9306669302        4.7814913802       -1.6995790968
 H         4.6787819683        5.1522251442       -0.6727840678
 H         5.7444334214        4.0201976830       -0.1162601012
 H         7.2710388347       -0.0524280605       -2.7003426270
 H         7.8357389990        1.1821802756       -3.8233682808
 H         3.0552964855       -0.5271646761       -3.9251198651
 H         2.9002112739       -1.7477112382       -5.1405467353
 H         5.6520074062       -2.1572337997       -6.9050987225
 H         5.9645895367       -0.3445723774       -6.9431757751
 H         4.3882785278       -1.1609391161       -6.5437015718
 H         7.5637209940       -2.6099913478       -5.5274322449
 H         8.2896580769       -1.1875400978       -4.9041890101
 H         7.4996217838       -2.3573190953       -3.8435533426
 H         2.9393814816       -3.4042568846       -3.7051739638
 H         2.7794811324       -2.4117122549       -2.1746351871
 H        -2.6605550558       -2.0204101661       -5.2708917905
 H        -2.4364209324       -3.7024123201       -5.4328715422
 H        -0.2164250869       -1.2888236009       -5.5867965940
 H        -0.2663774414       -2.9487131698       -6.5223846248
 H         1.2419642597       -2.3038068860       -5.8964932744
 H         0.4452982176       -4.9438873506       -3.4427605893
 H        -0.1612402252       -5.0045036679       -5.0949852142
 H         1.6222665296       -4.6865955047       -4.7576638041
 H        -4.0732575423       -2.2905212684       -3.1555198536
 H        -4.2523422446       -4.0596793482       -3.6116395278
 H        -6.2739282892       -0.2001451319       -4.2458487102
 H        -7.9084102004       -0.4701593200       -3.8027440669
 H        -7.1961798844       -1.7336550579       -6.1756784925
 H        -8.4565470792       -1.8881877909       -4.9501552431
 H        -7.9998376127       -3.1873254219       -6.1258812536
 H        -8.1004758577       -4.5886493211       -3.9520300225
 H        -6.8835155676       -5.2013557930       -4.8406724142
 H        -6.6376298495       -4.8845152576       -3.1567001067
 H        -7.0644098798        1.3398030991       -2.3568810726
 H        -7.1960262482       -0.1704273457       -1.4063260276
 H        -1.5292719958        2.4793684212       -0.5382357295
 H        -2.6075734365        2.4672728060       -2.0092602670
 H        -3.0498380922        3.4814079233       -0.6101788756
 H        -6.5843747684        1.9694048321        0.1666432636
 H        -5.4688752313        3.0443725455       -0.8153424063
 H        -5.0602822997        2.5305505395        0.9623311487
 H        -6.2653005574       -0.3636287353        0.5373297974
 H        -4.6573497932       -1.0574001915        0.0933591643
 H        -4.9051600638        0.1104608016        1.3928873210
 Na       -1.2489830871        1.4395179729        2.5133180753
