155

 C        -1.1809701074        4.2923886372        5.8513314812
 C        -1.6112955773        3.2487418624        4.8324328613
 C        -3.0513493472        2.6043749153        4.9789096985
 C        -2.6125527284        1.0965575983        5.1298777467
 C        -2.8078045432        0.3299209839        6.4927965479
 C        -3.7905497297        3.1558204824        6.2278053266
 C        -3.9046557685        2.7622070879        3.6862213201
 O        -0.8744649167        2.8747309326        3.9173388459
 O        -2.1768981991        0.4668333537        4.1573470704
 C        -1.6493641752       -0.6266251076        6.9113829187
 C        -0.4873850263        0.1996587078        7.6013151990
 C         0.8670776450       -0.6040082022        7.9506371571
 C         1.3685107573       -1.1672479916        6.5361057974
 C         2.1306257901       -0.0701025776        5.6391918028
 O        -0.6041016771        1.4247473304        7.6567215170
 O         1.2548374710       -2.3287733272        6.1963728730
 C         1.9176787267        0.2301203682        8.6419132551
 C         0.4100576435       -1.8157956194        8.9499967772
 C         2.5030884252       -0.6199889217        4.2463294305
 C         1.2769813161       -0.3675919440        3.4036163781
 C         1.1827373409       -0.8597218402        1.9527853624
 C         1.3078686061        0.4075560315        0.9439893045
 C         2.2061884773        0.4123834586       -0.4191214660
 C         2.2212122692       -1.8708687203        1.6846699630
 C        -0.0883854880       -1.6085797760        1.6607229346
 O         0.3411251273        0.3220979794        3.7707961088
 O         0.6048627504        1.4172090256        1.0184304705
 C         2.2704390509        1.8043554332       -1.0037884853
 C         3.3433517017        2.7790006853       -0.3397990002
 C         4.4564645269        3.3461021653       -1.3696200668
 C         5.3780331880        2.1280808574       -1.6513830448
 C         6.7513164385        2.2969330750       -2.3924510455
 O         3.3731245702        3.0497782770        0.8207687003
 O         5.0500580065        1.0753856983       -1.1402953666
 C         3.8592061951        3.8665753490       -2.7624774693
 C         5.1859718544        4.5380737682       -0.7009861985
 C         7.0493980978        0.9535637872       -3.0783147023
 C         6.0699951707        0.5850677757       -4.3106330417
 C         6.0039038063       -0.8306773117       -4.8829413890
 C         4.8781511728       -1.6255996640       -4.0779357010
 C         3.3965050423       -1.4260821529       -4.4165286304
 C         5.5528346503       -0.8270313990       -6.3790339105
 C         7.3452835490       -1.6297364467       -4.7460025256
 O         5.2704377697        1.4142889132       -4.6540481302
 O         5.2177516133       -2.4127318405       -3.2597251051
 C         2.4923001532       -2.0729397281       -3.3665534543
 C         0.9485822666       -1.9897197549       -3.6113428268
 C         0.2013253658       -3.1313241965       -4.2611798416
 C        -1.3920387931       -3.2097561448       -3.6963516467
 C        -2.5671154304       -2.9591285798       -4.6196620240
 O         0.4206212815       -0.9351353093       -3.2974127845
 O        -1.6013142306       -3.6444097615       -2.5887803668
 C         0.1296123369       -2.7754149538       -5.7315786097
 C         0.8944057556       -4.5215047220       -4.1018886479
 C        -3.9125394343       -3.5077597102       -3.9790554524
 C        -5.0704486738       -3.1617313762       -4.9879308336
 C        -6.5464678354       -3.1291869244       -4.3900026430
 C        -6.6620123181       -1.9230783412       -3.3038991413
 C        -7.0003992533       -0.4946411545       -3.6604949737
 C        -7.5208204475       -2.7858436867       -5.5600687542
 C        -7.0190105216       -4.4356034714       -3.7237027992
 O        -4.8193608806       -3.0143049105       -6.1855781916
 O        -6.4768842773       -2.1801866251       -2.1209701051
 C        -6.6885593902        0.5055524731       -2.5123734350
 C        -5.1888237564        0.5859540573       -2.1320094004
 C        -4.8286289886        1.0972237158       -0.6380201540
 C        -3.3093260993        1.2253691490       -0.4724039354
 C        -2.5722815435        2.0074970806       -1.5224808809
 O        -4.2480613923        0.6054603319       -2.8659705676
 O        -2.8316127465        1.0140956381        0.5903181534
 C        -5.2582656869        2.5498789937       -0.2751148953
 C        -5.4593811945        0.1384662902        0.4005316453
 H        -1.9746749451        5.0038121974        5.9240875222
 H        -1.0611590790        3.8071423283        6.8684521666
 H        -0.2465498019        4.8541223301        5.6189905814
 H        -2.8388289367        1.0068661186        7.3160281194
 H        -3.7432925729       -0.3024294153        6.4246326297
 H        -3.4131918333        2.9801434423        7.2510300413
 H        -4.8182752344        2.7908071446        6.1592124214
 H        -4.0336571420        4.2053761223        6.0721953329
 H        -3.2963082586        2.6603868700        2.8053198071
 H        -4.6334057323        1.9748488617        3.6922135156
 H        -4.3591566444        3.7905281167        3.4806777644
 H        -2.0531679396       -1.2427965372        7.7401780539
 H        -1.2458120205       -1.2255519652        6.0820274180
 H         1.6099033639        0.8202923527        5.5897328204
 H         3.0858052479        0.1100165395        6.1706328439
 H         1.7901394327        1.2864773688        8.3914852945
 H         2.9402956504       -0.1046511420        8.4913288901
 H         1.8630723971        0.0797867103        9.6338123632
 H        -0.1528430850       -2.4839928061        8.3148783512
 H         1.2779210917       -2.3247827530        9.3201703054
 H        -0.0946506961       -1.4099812259        9.8056995795
 H         2.6461721387       -1.7108523288        4.2479507507
 H         3.4422389221       -0.2826818945        3.7127532588
 H         3.2384003524       -0.0277280022       -0.3185622292
 H         1.6913097839       -0.2276296509       -1.1591798089
 H         2.3463030099       -2.2096325724        0.6569021663
 H         1.8912469867       -2.8156305665        2.2762958792
 H         3.1819246463       -1.6040494193        2.0441876393
 H         0.0897912146       -1.9841825214        0.6910701199
 H        -0.2590028874       -2.4569292333        2.3100878131
 H        -0.9180707919       -0.9108384810        1.5770965801
 H         2.4484256551        1.8604032831       -2.0281036172
 H         1.3979218675        2.3272135485       -0.7692790216
 H         6.7506424064        3.1370600172       -3.0933497691
 H         7.4926855246        2.4441775858       -1.5861829974
 H         4.4302417236        4.6248251918       -3.2492069581
 H         2.8327690945        4.3504684659       -2.5579971037
 H         3.7200914901        3.0436245536       -3.5500027542
 H         6.0831803642        4.9281745130       -1.1884424950
 H         4.5161864905        5.4224624255       -0.6872937247
 H         5.3150664927        4.2878706493        0.3879606159
 H         7.1857932068        0.2518192389       -2.2462352174
 H         7.9628509205        0.9492899035       -3.6080345053
 H         3.2664484977       -0.3397811180       -4.2834401665
 H         3.1628406274       -1.7013004522       -5.4613380968
 H         4.6927919313       -1.5456960961       -6.7280966966
 H         6.4374556405       -0.9790978974       -6.9116224036
 H         5.0901273494       -0.0006759713       -6.7419220603
 H         7.1507438594       -2.7162094842       -4.6992336553
 H         8.0881301067       -1.4180878170       -5.4990445641
 H         7.8654099160       -1.4829516156       -3.8187672249
 H         2.7314177400       -3.0960040424       -3.2665531116
 H         2.9689901957       -1.6382109041       -2.4260792314
 H        -2.5809132542       -1.8712981765       -4.7130749306
 H        -2.4655278387       -3.4437124743       -5.6184092760
 H        -0.3374982042       -1.8504637946       -5.9651880127
 H        -0.3346697972       -3.5174486334       -6.3395033452
 H         1.2481194833       -2.5293665736       -5.9342107779
 H         1.1549647294       -4.4629138041       -3.0970057700
 H         0.1723004919       -5.2962299771       -4.2641194661
 H         1.8547861547       -4.6005590158       -4.6357693264
 H        -4.1100135347       -2.9645223739       -3.0677898123
 H        -3.7784144299       -4.5290931470       -3.9712136041
 H        -6.3901824411       -0.1690584070       -4.4964841227
 H        -8.0568878880       -0.2683504464       -3.8828227041
 H        -8.2018308185       -1.9490928555       -5.3684557451
 H        -8.1280523918       -3.6545214062       -5.8354761636
 H        -6.9681189495       -2.5369266529       -6.4687138907
 H        -7.9622942270       -4.4744581897       -3.2508331126
 H        -7.1175557195       -5.2750363070       -4.3846444890
 H        -6.3254618430       -4.7616884690       -2.9550642177
 H        -6.9026207885        1.5208787172       -2.7062777148
 H        -7.2305438645        0.1929718498       -1.6359735061
 H        -1.8715372238        2.6505319973       -1.0699860101
 H        -1.9433314075        1.3321545569       -2.1633251570
 H        -3.3199491037        2.5474864702       -2.2346894956
 H        -5.2797011725        3.1967814652       -1.2820503157
 H        -4.5213677608        2.9726133737        0.4708843230
 H        -6.2541339851        2.5307817072        0.1842769788
 H        -6.5240277216        0.3273696198        0.4107671937
 H        -5.1761225262       -0.9152674045        0.2332884565
 H        -5.0352308910        0.3098445043        1.3649577577
 Na       -1.2522993545        1.4447880176        2.2338677666
