155

 C        -3.4659092893        4.2966265736        4.8743734857
 C        -3.4503357142        2.8442099736        4.4139123114
 C        -4.1212306918        1.6602344413        5.2506534363
 C        -3.0748591313        0.4902737866        5.6538984109
 C        -3.1585722795       -0.1651041397        7.0638383331
 C        -4.6728251846        2.2304562520        6.5723361691
 C        -5.2761606476        1.0126915536        4.4222121229
 O        -3.1114361178        2.5839886199        3.2625622867
 O        -2.4165868334       -0.0084647876        4.7996426337
 C        -1.8301430564       -0.8052249532        7.3898749746
 C        -0.6143714656        0.0903009106        7.4665017186
 C         0.9012470996       -0.4439627952        7.7124308383
 C         1.5074482702       -0.3997918830        6.2936051611
 C         2.3017288661        0.8809353796        5.8962537703
 O        -0.6932545236        1.2116017601        7.0782411884
 O         1.3541815473       -1.3341506432        5.5248444199
 C         1.6479550924        0.4353874334        8.7220687367
 C         0.8568762313       -1.8896898287        8.2300748298
 C         2.4266095598        0.9730643922        4.2478728436
 C         1.2122425772        0.5975738637        3.3680040521
 C         1.2266501738       -0.6039348201        2.1178599347
 C         0.8316042613        0.2230860863        0.8198899837
 C         1.7325756520        0.2694040993       -0.4264980812
 C         2.6742604143       -1.1097880107        2.0599327047
 C         0.1947244623       -1.7204867867        2.4397499184
 O         0.1030324131        1.0162216105        3.7021654610
 O        -0.2437256088        0.7934874147        0.7827706109
 C         2.3183068132        1.5950053073       -0.7604482170
 C         3.1891684642        2.1216037836        0.3910999536
 C         4.5403155818        2.7250422230        0.0152944987
 C         5.1871897853        1.6473908160       -0.9491530508
 C         6.1677444581        2.2066569549       -2.0907040690
 O         2.7868331456        1.9252331753        1.5701073378
 O         5.1083752657        0.4604013798       -0.6695121755
 C         4.2999950635        4.0978197011       -0.6547210725
 C         5.4677921683        2.8212821535        1.1812136241
 C         6.6195673723        1.0607802829       -3.1631686551
 C         5.9645648899        1.3629948001       -4.5517854228
 C         6.0185961050        0.1386426782       -5.5783401368
 C         5.0947744547       -0.9400740397       -4.9735657423
 C         3.5900415474       -1.0748677910       -5.4533170744
 C         5.5239637759        0.5311560812       -6.9981889325
 C         7.4770279140       -0.3999059983       -5.5406182505
 O         5.3295791791        2.3616327640       -4.8259943184
 O         5.5190251778       -1.6956069706       -4.0893697471
 C         2.7069678770       -1.8822557260       -4.3961397544
 C         1.2918127342       -2.2443219218       -4.8536503879
 C         0.8583139284       -3.8651124407       -5.2245844209
 C        -0.4255269098       -3.9920525220       -4.2414242786
 C        -1.8511768953       -3.5366223003       -4.7843445576
 O         0.4881766670       -1.3705074012       -5.1704884529
 O        -0.3013191866       -4.2175854287       -3.0692015532
 C         0.6055995739       -4.1364007181       -6.6633593306
 C         1.9454860866       -4.8770972005       -4.7075671050
 C        -2.8409854724       -3.4004710115       -3.6546826401
 C        -4.3121557841       -3.1951228729       -4.2648812966
 C        -5.6446966908       -3.1981932602       -3.4295186058
 C        -6.0405469662       -1.6601768483       -3.1773672344
 C        -5.5322801738       -0.5382657966       -4.0633074727
 C        -6.8016185110       -3.7913273518       -4.3331392813
 C        -5.4712008360       -3.9207100992       -2.0635276838
 O        -4.4346196732       -2.8034057302       -5.3910880179
 O        -6.6771249402       -1.4606686050       -2.1915997783
 C        -5.7351517802        0.8046115401       -3.3955636906
 C        -4.7306276730        0.8628070750       -2.2371158783
 C        -4.8271341931        2.0437857064       -1.0807592917
 C        -3.6062733136        1.7790729541       -0.1484027179
 C        -2.3471355764        2.1533977724       -0.8448299502
 O        -3.8673106814       -0.0307935013       -2.1651744567
 O        -3.6916651251        1.2523899881        0.9142934201
 C        -4.9523172761        3.5081406171       -1.6488912555
 C        -6.0486893235        1.5581172726       -0.3054701058
 H        -4.4054072634        4.6135755790        4.5307877647
 H        -3.3693168789        4.3663574127        5.9671205662
 H        -2.7961860541        4.9523239764        4.3673849992
 H        -3.3508187875        0.5314536885        7.8898731311
 H        -3.9595856435       -0.9213654243        6.9755490770
 H        -3.7777225702        2.4388792922        7.1699669469
 H        -5.3699136210        1.5045863031        7.0002513656
 H        -5.1637868498        3.1659899530        6.2768899528
 H        -5.6237374330        0.0605255752        4.8088694772
 H        -6.1291839940        1.6430048712        4.4353356674
 H        -4.8242486953        0.7645177467        3.4078329118
 H        -1.9148488157       -1.2453320959        8.3553469798
 H        -1.5587884246       -1.6144126368        6.6367307390
 H         1.7968460468        1.8078050528        6.1393597184
 H         3.2966297176        0.9821542335        6.3458887003
 H         1.9386067703        1.3988538777        8.2933623929
 H         2.5021735362       -0.1685981820        9.1264799090
 H         1.0270610348        0.6550633944        9.6193791462
 H         0.5137357805       -2.6500249976        7.4964363968
 H         1.8627511739       -2.2824022103        8.4903600238
 H         0.3249676725       -2.1047118436        9.1655302575
 H         3.2436033943        0.3064480867        3.9708108115
 H         2.5786572766        2.0154256864        3.9976477087
 H         2.6552367194       -0.3204657796       -0.3499500389
 H         1.0349665847       -0.3031946897       -1.0651968588
 H         3.0447344806       -1.7230503626        1.2389515629
 H         2.9663709051       -1.8191187134        2.8260218266
 H         3.3874143939       -0.3492930982        2.1528986017
 H         0.7626217422       -2.6709588183        2.2889849050
 H         0.0788058871       -1.7087947387        3.5537487952
 H        -0.7162202738       -1.6763582826        1.7353668462
 H         2.7181213149        1.5234588854       -1.7611723884
 H         1.4755527904        2.2503400621       -0.8329320908
 H         5.6292165011        3.0252286864       -2.6105279585
 H         7.0055428748        2.5944603895       -1.5434549096
 H         3.9240377099        4.0624737657       -1.6114792358
 H         5.3487961774        4.4844265347       -0.7696086268
 H         3.6383730460        4.7232192551       -0.0535363458
 H         6.3555490052        3.4513644944        0.9506994766
 H         4.9262823790        3.3425621007        1.9132513029
 H         5.7275321806        1.8559420982        1.4829561597
 H         6.3560027291        0.0347200395       -2.8732362545
 H         7.7313389764        1.0881393028       -3.2679337896
 H         3.2136303302       -0.0336101916       -5.5380644189
 H         3.4135394490       -1.7380194103       -6.3308193944
 H         5.7420519772       -0.1081508749       -7.7139509163
 H         5.8266842679        1.5324639349       -7.1477840468
 H         4.4226648293        0.5158204303       -6.9501701145
 H         7.6878890149       -0.5521044375       -6.6320433737
 H         8.2285823540        0.2161803336       -5.0124925952
 H         7.3280915716       -1.3850040336       -5.0866767177
 H         3.1771398429       -2.8020318431       -4.1678901277
 H         2.7135412770       -1.3497340782       -3.3688555947
 H        -1.6303769402       -2.5845580232       -5.3738376532
 H        -2.0632712957       -4.2335604483       -5.5428509593
 H        -0.1247223770       -3.5737677993       -7.1381743329
 H         0.2529311696       -5.1002159299       -6.8563934176
 H         1.5873801641       -3.9659526918       -7.1862279269
 H         2.2815578111       -4.6752443557       -3.7406465820
 H         1.5173187501       -5.8725647147       -4.8111729845
 H         2.8338767242       -4.9345915747       -5.3770081113
 H        -2.5050657301       -2.6667544566       -2.9602094389
 H        -2.7594295919       -4.3516908019       -3.0350978081
 H        -4.4093806077       -0.6475696830       -4.1842616973
 H        -6.0969283596       -0.7054930459       -5.0170567505
 H        -7.7543971840       -3.4228583533       -3.9484115710
 H        -6.7413854761       -4.8910331319       -4.2789964877
 H        -6.6083903171       -3.5690141663       -5.3917803501
 H        -6.1924301845       -3.4946735867       -1.3857151981
 H        -5.6331210920       -5.0001176534       -2.1276413905
 H        -4.5693091001       -3.5763064842       -1.5354852379
 H        -5.5348235091        1.6016434545       -4.0623752336
 H        -6.7613149526        0.8501642713       -2.9074711519
 H        -1.5414795604        2.4330759509       -0.0782907794
 H        -1.9832340473        1.3708867900       -1.4266326258
 H        -2.5198588323        2.9428077174       -1.4693416105
 H        -4.5492849694        3.5814309479       -2.6163658557
 H        -4.5082113885        4.3093179179       -1.0929410585
 H        -5.9648695911        3.7921517578       -1.7837413539
 H        -6.9161787801        1.4164448056       -0.9203049407
 H        -5.8420699994        0.6896897510        0.3211844434
 H        -6.2518358445        2.3003962099        0.5150276979
 Na       -2.0264833507        0.6055420294        2.5645610772
