155

 C        -4.7367364094        3.3914154575        5.7990941882
 C        -4.3391227708        2.5066129281        4.7019415295
 C        -4.8579655172        0.9669116103        4.8280447428
 C        -3.5513724293        0.2096363639        5.1226300648
 C        -3.2539260038       -0.3998709566        6.5511157752
 C        -5.9209082109        0.8853465015        5.9679280005
 C        -5.3962061827        0.6126695109        3.4588248914
 O        -3.4883581422        2.8605125354        3.9175969451
 O        -2.8878694415       -0.1040627801        4.1210142419
 C        -1.7821191188       -0.7938637328        6.6447198752
 C        -0.9248695718        0.1267338858        7.5976978321
 C         0.5976910637       -0.3019266415        7.9713560144
 C         1.2903138835       -0.2891917024        6.5170611590
 C         1.7743791489        1.0195898351        5.9572915186
 O        -1.3755272498        1.1484131173        7.9541618719
 O         1.1283389615       -1.3049405133        5.8278686623
 C         1.3627840364        0.6989283296        8.8282268866
 C         0.5210665038       -1.7251677583        8.7135563680
 C         2.0983347685        1.0404533192        4.4591856871
 C         0.9239387619        0.9890580703        3.5338459750
 C         0.8349783345       -0.2823237058        2.5536381627
 C         0.4299916952        0.2265322946        1.1674000383
 C         1.3751967493        0.1881940315       -0.0070882611
 C         2.1536186115       -1.1005334999        2.5559924296
 C        -0.3087650859       -1.1825023483        3.1211818867
 O        -0.0941856120        1.6624135837        3.6184252053
 O        -0.6504746114        0.8040844963        0.9613047681
 C         2.0241198659        1.5979075138       -0.2037940891
 C         3.2557107138        1.8938642710        0.6328372585
 C         4.5634424086        2.4861023460       -0.0388066443
 C         5.0198858095        1.3942078557       -1.2675972812
 C         6.3436068091        1.8293121222       -1.8692328317
 O         3.2018615647        1.6530692902        1.8580072052
 O         4.2783337144        0.5909759935       -1.7167286646
 C         4.2615061887        3.9457339756       -0.5166474506
 C         5.6094870081        2.5346466967        1.0551928268
 C         6.6608688836        1.0933266401       -3.1724624241
 C         5.6844274872        1.4796293573       -4.2556599087
 C         5.6430358274        0.6789956968       -5.6570600285
 C         5.2306823678       -0.7518374145       -5.3698845892
 C         3.7757654870       -0.9622240026       -5.0298925937
 C         4.6175989929        1.5236127146       -6.5443891786
 C         7.0136637188        0.7795120945       -6.2810382308
 O         4.7973859780        2.2969894361       -4.0138236984
 O         6.1030296788       -1.5525820449       -5.0116990011
 C         3.3811760089       -2.5132528964       -4.9298882197
 C         2.1403547393       -2.8080524546       -5.9354937123
 C         1.3973391335       -4.2248291630       -5.9036486972
 C         0.4066779270       -3.9499300074       -4.7263447304
 C        -1.1848191979       -3.6152268834       -5.0063975611
 O         1.5043021541       -1.8508727080       -6.3416823835
 O         0.7819326454       -4.0406476358       -3.6058563955
 C         0.6634378450       -4.5440923257       -7.3573194881
 C         2.2350442867       -5.4043142446       -5.5085758817
 C        -2.0785476170       -3.6480442997       -3.8010623260
 C        -3.6037396312       -3.4525124926       -4.1239057831
 C        -4.7067821432       -3.3708102816       -2.9634344420
 C        -4.7502683670       -1.9052063067       -2.5964947496
 C        -4.8824215880       -0.8241477953       -3.7294845380
 C        -6.1826944352       -3.5657239172       -3.3912261150
 C        -4.4432486480       -4.3399738265       -1.7410933895
 O        -4.0461955118       -3.2868030216       -5.2267134658
 O        -4.8411638850       -1.6348406590       -1.4182197647
 C        -5.3353243658        0.5333434647       -3.1603277464
 C        -4.2983446984        1.3357296889       -2.3239421802
 C        -5.0129464635        2.0625325262       -1.0140688254
 C        -3.7552954999        2.1806790535       -0.0709833759
 C        -2.7601822009        3.2840490031       -0.2106039178
 O        -3.1768730529        1.5409981744       -2.6629386782
 O        -3.5539299836        1.2713922079        0.6826632233
 C        -5.6227287222        3.3974688145       -1.5112404547
 C        -6.0650085871        1.0747713716       -0.3733037015
 H        -5.7733656207        3.6970898332        5.7892092573
 H        -4.5062891458        2.8193070316        6.7789553277
 H        -4.0121458841        4.2140974071        5.8153978198
 H        -3.5334224908        0.3649643677        7.3002953655
 H        -3.8492079774       -1.2516494580        6.7018812573
 H        -5.5408921170        1.3056208619        6.9065451765
 H        -6.3051691426       -0.1834869926        6.0926474667
 H        -6.7320871703        1.5278214465        5.6325785816
 H        -5.7734104231       -0.3916514541        3.3966614141
 H        -6.1393753588        1.2905339168        3.1112652565
 H        -4.6541634702        0.7277403997        2.6395297429
 H        -1.7786031205       -1.8843563023        6.9671929154
 H        -1.2980212112       -0.9021648115        5.7204818005
 H         0.9798516079        1.8270612549        6.1235589406
 H         2.6541149628        1.3187693803        6.4986439357
 H         1.4556006894        1.5810029369        8.3451421694
 H         2.3076039658        0.2907903348        9.0153900368
 H         0.9062506268        0.9243303146        9.8064639122
 H         0.2776802938       -2.5653383270        8.1139626391
 H         1.5174059357       -2.0416846898        8.9386642199
 H         0.1157173377       -1.8891013800        9.6537051177
 H         2.7827827895        0.1963145612        4.3050749123
 H         2.8139579422        1.8378812851        4.3168812036
 H         2.1091255127       -0.6179942667        0.0722804264
 H         0.7872060183       -0.0844423949       -0.9525649309
 H         2.1467154134       -2.1351005237        2.0729905769
 H         2.3400410116       -1.4857202726        3.5315840600
 H         3.0403491598       -0.5323976695        2.2260453995
 H        -0.7908527845       -1.4363498629        2.2123306222
 H         0.2679446518       -1.9751997208        3.6003088623
 H        -0.9428737258       -0.6576670856        3.8942061649
 H         2.3258544703        1.5689184102       -1.2848088015
 H         1.5017071915        2.5169101685        0.0375956334
 H         6.2942819857        2.9013121747       -1.9919991033
 H         7.1436955689        1.8351696586       -1.1111105789
 H         3.2343220606        4.0324560740       -0.7458745610
 H         4.7718489776        4.3050566045       -1.4741722551
 H         4.5321314072        4.7630293278        0.1889467374
 H         6.4762803818        3.2488659130        0.9173060120
 H         5.0693915993        2.9637271484        1.9198977313
 H         5.8065643224        1.5374462996        1.3800471553
 H         6.7230283902       -0.0031180315       -3.0402979251
 H         7.6524675421        1.4590520977       -3.5955820147
 H         3.4111498489       -0.3285491508       -4.1489402655
 H         3.0312850779       -0.5526238489       -5.6707215464
 H         3.7125220161        0.9881461962       -6.8992290437
 H         5.1705329497        1.9612913526       -7.3036633435
 H         4.1900923151        2.3225649875       -6.0379373249
 H         7.3153837673       -0.1910356261       -6.6921506183
 H         7.0118389140        1.5126055464       -7.0766560646
 H         7.7103352520        0.8668747719       -5.4993093354
 H         4.2266932820       -3.1487396323       -5.2829333594
 H         3.0926312539       -2.7345222871       -3.9340751660
 H        -1.2206098882       -2.5507092251       -5.3299913028
 H        -1.5535402745       -4.2560696427       -5.7366684549
 H         0.0499204282       -3.7556039075       -7.7938855637
 H        -0.1202533815       -5.3170665243       -7.3002018416
 H         1.5325533206       -4.8585441870       -8.0583347947
 H         2.7172599277       -5.0680385152       -4.6330006112
 H         1.8058062893       -6.4238111090       -5.3079542130
 H         3.0579037977       -5.6124691302       -6.2148469851
 H        -1.7071617383       -2.8836489007       -3.0391563399
 H        -2.1432667531       -4.6377713149       -3.3749035005
 H        -3.8886605974       -0.7609180675       -4.2498007602
 H        -5.5160707127       -1.1569264011       -4.6411994272
 H        -6.8734273817       -3.2390079221       -2.6721746929
 H        -6.2828165606       -4.6272422651       -3.5055373878
 H        -6.4273294694       -3.0796588353       -4.3569511785
 H        -4.5404513545       -3.8099696856       -0.8409642455
 H        -5.1569268285       -5.1814797628       -1.7631832780
 H        -3.3843312042       -4.5932328794       -1.7845844687
 H        -5.5829914999        1.1930745377       -4.0544889209
 H        -6.2990563454        0.4225131874       -2.6605648598
 H        -2.9735271550        4.0375133854       -1.0387426516
 H        -2.5557390655        3.7612804200        0.7325919693
 H        -1.8538431544        2.7888095822       -0.5208285425
 H        -5.0118111253        3.8280911040       -2.1750012435
 H        -5.6982173344        3.9479892737       -0.5836768854
 H        -6.6277035900        3.1836055738       -1.8754901165
 H        -7.0661379654        1.1533226612       -0.7432027311
 H        -5.7172337848        0.0654033324       -0.4976661354
 H        -5.9959802011        1.3325920038        0.6774138417
 Na       -2.1653363687        1.5431007623        2.4775155885
