155

 C        -4.2295746969        3.4090610169        6.2373856097
 C        -4.4371364131        2.3182110424        5.1684102862
 C        -5.2548585286        0.9517584709        5.5193148664
 C        -4.3362277547       -0.1875580050        5.6319866625
 C        -4.1309342341       -1.0746313557        6.8930629269
 C        -6.1439446059        1.1756958347        6.7508774139
 C        -6.3841306752        0.7630045480        4.4275812775
 O        -3.8275790811        2.4861852647        4.1415545569
 O        -3.7783230970       -0.5652934916        4.5718832066
 C        -2.6789569828       -1.2592754559        7.1115617604
 C        -2.0465805594        0.0564133481        7.5912175684
 C        -0.5926534243        0.0227247380        8.1159102364
 C         0.3585762076       -0.3220484016        6.8471351403
 C         0.9880336127        0.8149895307        5.9364072982
 O        -2.6552558056        1.0910987001        7.5147348043
 O         0.6283827637       -1.5015859626        6.6150200847
 C        -0.2336784258        1.4936946384        8.5546170513
 C        -0.3666097238       -1.0773624930        9.2497933071
 C         1.5271803954        0.2136061500        4.6013893086
 C         0.4311560767        0.2329732946        3.4704060063
 C         0.7171726843       -0.4475774819        2.1439810907
 C         0.3008348841        0.7490457668        0.9123584973
 C         1.0410132870        0.6687283213       -0.4032096938
 C         2.2167656254       -1.0269768899        1.9689873095
 C        -0.4042893540       -1.5031605696        1.8710050140
 O        -0.7451122011        0.5354690050        3.8322781670
 O        -0.5613278514        1.5600128491        1.0572802957
 C         1.8789746827        1.9675879403       -0.8287619038
 C         2.8684207939        2.2815282885        0.2531177919
 C         4.3674861295        2.6472498008       -0.0224133281
 C         4.9047412254        1.7447683965       -1.2222034233
 C         6.2053847465        2.0869052683       -1.8974325554
 O         2.4809635631        2.2392655894        1.3992782298
 O         4.3205573367        0.7112327328       -1.4863520450
 C         4.3316240677        4.1075702230       -0.4023296904
 C         5.2173529180        2.5265654714        1.2694515064
 C         6.4484881605        1.4375620444       -3.2665978064
 C         5.3678224424        1.6952200410       -4.3367072911
 C         5.5522948835        1.3500325720       -5.8829222364
 C         5.1193133711       -0.2047344022       -5.9729932467
 C         3.6255072205       -0.6023831279       -5.6945811309
 C         4.6641207236        2.2027800626       -6.7584613710
 C         6.9633802885        1.6324327734       -6.4524706673
 O         4.2747896752        2.1344886392       -3.9676149536
 O         5.8983567420       -0.9365101463       -6.5419274036
 C         3.4070324501       -2.1110170133       -5.4217109107
 C         2.2787219711       -2.7753932159       -6.2888832305
 C         2.1433594270       -4.3365914288       -6.1700405139
 C         1.2530695267       -4.7031918472       -5.0797069055
 C        -0.3627991872       -4.5089980515       -5.3082098377
 O         1.5076356026       -2.1148392181       -6.9330368294
 O         1.5981001755       -5.1202299504       -4.0158382172
 C         1.5824558744       -5.0868473386       -7.5415186493
 C         3.6458218528       -4.8905588914       -5.9801352870
 C        -1.0444598011       -4.2053831238       -3.9834112127
 C        -2.5696886815       -4.0123100423       -4.0517727148
 C        -3.1604414837       -3.2589230058       -2.8131788503
 C        -2.5686071897       -1.7413200950       -2.8669876363
 C        -3.5365455014       -0.6082514172       -3.1503927490
 C        -4.7055830851       -3.2976933578       -2.9540013978
 C        -2.6205741532       -3.8121778330       -1.4480315726
 O        -3.2235007031       -4.5602232319       -4.8730774063
 O        -1.3886238422       -1.4698007709       -2.6623295394
 C        -3.9302637864        0.0076220759       -1.8552870656
 C        -4.1204142443        1.5127940472       -1.9668061758
 C        -5.1675102339        2.3013079399       -0.8914689120
 C        -4.2086686263        2.1384220294        0.4087700787
 C        -3.3661256433        3.3083699788        0.8746227251
 O        -3.3986662364        2.1094946841       -2.7834826045
 O        -4.1443148374        1.0065409220        0.8937808083
 C        -5.2452216066        3.7650780564       -1.3323074159
 C        -6.4946944754        1.4863853792       -0.7018376206
 H        -5.0006999628        4.1383496488        6.2053302291
 H        -4.2245502571        3.0534413927        7.2826941337
 H        -3.2866888845        3.8306741146        6.0990168568
 H        -4.5210527703       -0.5340400435        7.7588324829
 H        -4.5892147252       -2.0273848684        6.7478040399
 H        -5.8001757549        1.5036724627        7.7002670730
 H        -6.5242376104        0.1888414810        7.1360662877
 H        -7.0505328580        1.6948410017        6.4946687958
 H        -7.1120932786       -0.0475157486        4.6368377020
 H        -7.0029438837        1.6544865852        4.3242645708
 H        -6.1313219376        0.5743315117        3.4043264148
 H        -2.5540698010       -2.0613491519        7.9047239851
 H        -2.2099038973       -1.5373972956        6.1681888720
 H         0.2252407859        1.5690831982        5.9356951612
 H         1.8652897170        1.2335556857        6.5307279808
 H        -0.4068424922        2.1431196437        7.6702229817
 H         0.7864405689        1.5685627550        8.9800234689
 H        -1.0383819468        1.7443075694        9.3208378643
 H        -0.3791658257       -2.1417255078        8.8945522086
 H         0.6609472543       -0.8739184589        9.6091912514
 H        -0.9947919873       -1.0131936073       10.1656825797
 H         1.8683553320       -0.7821320442        4.8258427982
 H         2.4160209696        0.7259018473        4.2682789549
 H         1.7970195293       -0.0954025533       -0.4470448444
 H         0.3717578208        0.5220998067       -1.2767805673
 H         2.3958527153       -0.9946439742        0.8491555878
 H         2.3520379850       -1.9580390767        2.4032931776
 H         2.8741678630       -0.2353614635        2.4107985959
 H        -1.4178564261       -1.0481859512        1.8353341381
 H        -0.0594367737       -1.7870117213        0.9113813054
 H        -0.2375853207       -2.2901416955        2.5649586823
 H         2.4542616024        1.7062847009       -1.7663445124
 H         1.1655053374        2.8135993372       -1.0933605875
 H         6.2285093994        3.1712729738       -1.9042166163
 H         6.9726923488        1.7794754510       -1.1844636298
 H         5.2103901673        4.6291918709       -0.6632188104
 H         3.8995556368        4.7161746773        0.4502194883
 H         3.6102248164        4.0746919455       -1.2276384682
 H         6.3045051487        2.5603730078        1.0567564678
 H         5.0143949537        3.3167850416        1.9533888054
 H         5.0187570285        1.6185765752        1.6860758038
 H         6.5802787877        0.3374906287       -3.0720924693
 H         7.3912747422        1.7752876485       -3.6513395533
 H         3.1843091492        0.0375593211       -4.9606730721
 H         3.3042201314       -0.3746251673       -6.7284808615
 H         4.6309207152        1.9018158474       -7.7005077471
 H         4.8843923436        3.2498335446       -6.6427125717
 H         3.5854200078        2.1554751507       -6.4134531183
 H         7.0252268672        2.6294742550       -6.9705321940
 H         7.7702151777        1.8510230946       -5.7337646811
 H         7.2993101161        1.0282440666       -7.2625757811
 H         4.2771446906       -2.6351354400       -5.7929103015
 H         3.3096424260       -2.3977322551       -4.4234318790
 H        -0.4615174000       -3.7623714153       -6.1475831262
 H        -0.7730544265       -5.5294347570       -5.5482289035
 H         0.6929619511       -4.5730438416       -7.9017458075
 H         1.2465979408       -6.0405060357       -7.2687481297
 H         2.4435706787       -5.2792180409       -8.2109662206
 H         3.9435053158       -4.5399105058       -5.0553030441
 H         3.7922598058       -5.9952952195       -5.9161645912
 H         4.2992409972       -4.4988174440       -6.7403979348
 H        -0.4701352179       -3.2884657893       -3.6362000162
 H        -0.8761131978       -5.0831990242       -3.3970873387
 H        -3.0588419382        0.0855654666       -3.7980409746
 H        -4.3936952690       -0.8979826912       -3.7861603280
 H        -5.2628137448       -2.8817312179       -2.1572353392
 H        -4.9311068687       -4.3697412831       -3.0042984850
 H        -5.0138556089       -2.9107754410       -3.9376907015
 H        -3.3098827300       -3.8624886951       -0.6431925643
 H        -2.1709952079       -4.8264298952       -1.5114141160
 H        -1.8299914494       -3.1402133241       -1.1228954918
 H        -4.7535208408       -0.5353845850       -1.3509806774
 H        -3.1040153018       -0.1378852241       -1.1723814142
 H        -2.4479612662        2.8168122828        1.0969777775
 H        -3.0764687705        4.1217113962        0.1147790984
 H        -3.8278923376        3.7202419842        1.8161727471
 H        -4.3577858089        4.1154929494       -1.9514689141
 H        -5.4631750911        4.4133558590       -0.4941494297
 H        -6.2182495776        3.6960158500       -1.8933559816
 H        -6.9670538827        1.2113572887       -1.6350244698
 H        -6.3438611642        0.5627810026       -0.1079965733
 H        -7.2482753295        2.1086865101       -0.0752069633
 Na       -2.7439168448        0.6418251063        2.8414735222
