155

 C        -4.5576222691        3.5317133282        6.0425252489
 C        -4.0453200805        2.3629326478        5.1473246619
 C        -4.9616315768        1.0556801554        5.2974280221
 C        -4.1747975724       -0.2531540033        5.4204479841
 C        -4.1888464869       -1.0405602132        6.7141929904
 C        -5.8792287677        1.2599674120        6.6084118594
 C        -5.8777842965        1.0454578792        3.9606110533
 O        -3.0163668204        2.4228697606        4.4314380305
 O        -3.5475768663       -0.7561772931        4.5203160775
 C        -2.7840407005       -1.2920932388        7.2170347722
 C        -2.1222938702        0.0135892097        7.4059052947
 C        -0.6909071347        0.0954192997        7.9185019916
 C         0.1631351385       -0.3424671187        6.6790732540
 C         1.1863299930        0.5790034905        5.8503829914
 O        -2.6818691948        1.0669069979        7.1886479393
 O         0.0780459341       -1.5325989375        6.3982438255
 C        -0.3736465155        1.5584480624        8.3762316561
 C        -0.3490306874       -0.9961860551        9.0281542105
 C         1.5607127511        0.0519079351        4.4727950212
 C         0.2774811121       -0.0640273447        3.5849136831
 C         0.3408418576       -0.5851397293        2.1233001341
 C        -0.1563204153        0.4943033565        0.9559673019
 C         0.6376341971        0.7416181550       -0.2637574669
 C         1.7049813255       -1.2524120927        1.8370131636
 C        -0.8012755556       -1.6880541911        1.8906208256
 O        -0.8330990743        0.1471628677        3.9738606435
 O        -1.1446354169        1.1787232727        1.2108245848
 C         1.3866023586        2.0189754501       -0.1250116298
 C         2.6410116256        2.0497404924        0.7878093653
 C         3.9477350489        2.5602018436        0.0742664745
 C         4.4981094684        1.5829793255       -1.0765737335
 C         5.5762180117        2.2166919664       -1.9928876185
 O         2.4759564391        1.7960690007        1.9685959846
 O         4.0017529535        0.4878280628       -1.1334874571
 C         3.6503067918        3.9937885195       -0.4894029662
 C         5.0184217595        2.6546865660        1.1374494211
 C         5.6805842174        1.4568386187       -3.4114977828
 C         4.9164506112        2.1433806145       -4.5526363713
 C         5.3244514654        1.5773890252       -6.0034230370
 C         5.3285313052        0.0398614626       -5.7995792062
 C         3.9979568699       -0.7297830018       -6.2706580093
 C         4.1828300280        2.0249217895       -6.9934607047
 C         6.6933082498        2.0729853265       -6.3745130466
 O         4.0069657945        2.9682563567       -4.4465769858
 O         6.2625873044       -0.4193762791       -5.2461154499
 C         4.0224025940       -2.2631063825       -6.1651407810
 C         2.6464364079       -2.9278463486       -6.2703840023
 C         2.6104961658       -4.4538465507       -6.4017738883
 C         1.5040764355       -5.0059104431       -5.3654948421
 C         0.0160693392       -4.5525636077       -5.3244783766
 O         1.6405630886       -2.2663636334       -6.0624415468
 O         1.9082632422       -5.8739841619       -4.6512940397
 C         1.9893605553       -4.7512296164       -7.9210554397
 C         3.8535383095       -5.2220841468       -6.2712960531
 C        -0.4269300948       -4.2555523049       -3.7860621384
 C        -1.9717760075       -3.9244652424       -3.8219202805
 C        -2.6599123796       -3.1675214840       -2.6010290641
 C        -2.1463779998       -1.6785682493       -2.4857732166
 C        -3.0600755122       -0.5194736455       -2.8477056556
 C        -4.2398565190       -3.2544550433       -2.8066781352
 C        -2.2369148567       -3.8875202403       -1.2185527276
 O        -2.6293123408       -4.2584219772       -4.7706492371
 O        -1.0149692441       -1.4924696010       -2.0639052720
 C        -3.2262853070        0.4796874747       -1.5912809712
 C        -3.9956972152        1.7575332852       -1.9455065359
 C        -5.1517249594        2.3032991088       -0.9779741937
 C        -4.5287254226        2.3125420845        0.4478979085
 C        -3.7735182981        3.4429611930        1.0170756073
 O        -3.6864750498        2.3956546824       -2.9587566412
 O        -4.4472121969        1.2519230975        1.1155923425
 C        -5.6267187250        3.6600062091       -1.6477703046
 C        -6.4033905405        1.3053946733       -1.1236534313
 H        -5.5786526003        3.7306579669        5.9044307984
 H        -4.3969372109        3.1479837942        7.0635147352
 H        -4.0680988955        4.4650322121        5.9557838416
 H        -4.7286877607       -0.6045243743        7.4938682105
 H        -4.6169978508       -2.0310200237        6.5121788686
 H        -5.3012014040        1.2108807036        7.5382474024
 H        -6.7169144664        0.5921064196        6.6743413331
 H        -6.3885715227        2.2004618118        6.7664972953
 H        -6.6195014625        0.2586024574        4.0146302303
 H        -6.4673308106        1.9395024654        3.6468720802
 H        -5.3114334995        0.7367070976        3.0233505182
 H        -2.8197967112       -1.7819348475        8.1486723323
 H        -2.1530747785       -2.0261857862        6.6324796486
 H         0.5568597649        1.4865308886        5.7669328428
 H         2.0400363672        0.7922780546        6.4703422549
 H        -0.8015122229        2.1545374876        7.6222684118
 H         0.7429661360        1.6647007848        8.4945311889
 H        -0.8306422397        1.8111862372        9.3989977512
 H        -0.5180366779       -2.0102959099        8.5497690906
 H         0.6905765202       -1.0199356989        9.4386935572
 H        -1.1278100572       -0.8796455334        9.8200103403
 H         2.0781190945       -0.9418978969        4.4916602385
 H         2.2577982357        0.6784971994        3.8711637127
 H         1.4070904019       -0.0501365739       -0.4373004984
 H         0.1424862161        0.7144070839       -1.2703921704
 H         1.8770029069       -1.3428022940        0.7565750419
 H         1.7454781626       -2.2261592871        2.3249914029
 H         2.4276250855       -0.4811554472        2.1990392357
 H        -1.6673846037       -1.1566083625        2.1749837536
 H        -0.7111238898       -2.0141523335        0.8459684571
 H        -0.6325887852       -2.4136047332        2.7558982660
 H         1.7396175643        2.2802642278       -1.0875157899
 H         0.7187453849        2.8459871528        0.1948035637
 H         5.5833371084        3.2958478815       -1.9095482682
 H         6.4960144384        2.0101920673       -1.4332755514
 H         4.6286908465        4.4064824813       -0.8716247894
 H         3.3372010954        4.6282937186        0.3373969503
 H         3.0046263950        3.9933801977       -1.3205508621
 H         5.9956691107        2.8736965060        0.7693135943
 H         4.6610027834        3.4039708014        1.8078066181
 H         5.0849498679        1.7671379189        1.7411461486
 H         5.3752224372        0.4274155670       -3.1655542035
 H         6.7821483117        1.3857176875       -3.6374139939
 H         3.2020513971       -0.1297194689       -5.8032782671
 H         3.9167312457       -0.5539194889       -7.3494377753
 H         4.1829995063        1.4932339688       -7.8899249478
 H         4.5151066131        3.0434501574       -7.2791475720
 H         3.1871434819        1.9842333223       -6.4551675705
 H         7.4003662130        1.7212286828       -5.6325152232
 H         7.1025892650        1.7340197675       -7.3425877847
 H         6.9108751688        3.1560450822       -6.4497376871
 H         4.6622229893       -2.7400723371       -6.8452915939
 H         4.4027776138       -2.5746799507       -5.1737022955
 H        -0.1640847194       -3.6151031729       -5.8665053005
 H        -0.6953250403       -5.3482596395       -5.6327647495
 H         0.9836660020       -4.3197063960       -8.0339554107
 H         1.9218365788       -5.8815158004       -8.0408898591
 H         2.6921376127       -4.2878263527       -8.6901441066
 H         4.4334582973       -4.9881659550       -5.3661804036
 H         3.6609007101       -6.2682419810       -6.3369964417
 H         4.4289654266       -4.9226693518       -7.1162662984
 H         0.1429732908       -3.4682870493       -3.3520703257
 H        -0.2363986725       -5.1862363022       -3.2533229451
 H        -2.5616126712        0.0660359368       -3.7254153673
 H        -4.0554922044       -0.8241784360       -3.2267391199
 H        -4.8080999327       -3.0325925619       -1.8993853423
 H        -4.4412549177       -4.2099181654       -3.1915662183
 H        -4.5031023112       -2.5728459106       -3.6456051081
 H        -2.1952427995       -3.1446420769       -0.3808344929
 H        -2.9118429241       -4.6818364272       -0.9767006322
 H        -1.2875160706       -4.3489904307       -1.3321971013
 H        -3.8641008350       -0.0040086823       -0.8664371256
 H        -2.2285010775        0.7531459614       -1.1173429534
 H        -2.9458625475        3.7006917989        0.4202053679
 H        -4.4606159435        4.3339949370        0.8399603842
 H        -3.5264247167        3.3220903655        2.1165499013
 H        -5.0265070267        4.4239371441       -1.2382463730
 H        -6.6678866985        3.9763068055       -1.3105996663
 H        -5.4199159765        3.6906447082       -2.7114816635
 H        -6.6619814682        1.0483890878       -2.2092807687
 H        -6.2060536645        0.3601837677       -0.5418018272
 H        -7.2929697320        1.6860665469       -0.6972375038
 Na       -2.8301638107        0.7297942280        2.8230101140
