155

 C        -4.4589588414        3.6121457272        6.4198289716
 C        -4.6986885942        2.6346835105        5.3013638063
 C        -5.6477259640        1.3848278924        5.3795164486
 C        -4.5476152438        0.1311879605        5.5206796794
 C        -4.3768745077       -0.6803291675        6.8150686032
 C        -6.7425463622        1.5833601012        6.4651428726
 C        -6.3584321364        1.2893058786        3.9921712054
 O        -3.9781816429        2.8145328526        4.3363928780
 O        -3.9188828321       -0.1846481756        4.5818051025
 C        -2.9406954365       -1.0996321557        6.9955326360
 C        -1.9843823997        0.0172866820        7.2988438073
 C        -0.4424363101       -0.2281156197        7.6009433698
 C         0.1992919342       -0.9110060314        6.3657470401
 C         1.3693150063       -0.2074683301        5.6259980809
 O        -2.3960699251        1.1272344511        7.5524325067
 O        -0.1923181538       -1.9617348257        5.9073851269
 C         0.2488488604        1.1244993544        8.0575728551
 C        -0.3627008192       -1.3202405579        8.7399467907
 C         1.3293296225       -0.5237007728        4.1206993747
 C         0.0011440601       -0.3658291489        3.4509389791
 C        -0.1454364221       -1.1297959419        2.0402195732
 C        -0.3455409276        0.1463679304        1.0397917496
 C         0.8512555320        0.6313730635        0.1773274094
 C         1.0546199497       -2.0367050107        1.5859422182
 C        -1.5681503666       -1.9128881113        2.1244974131
 O        -0.8670769995        0.3577880025        3.8959943674
 O        -1.4689620832        0.7280059802        0.9606222710
 C         0.9917595341        2.2672064230        0.2551041499
 C         2.4269606956        2.4461325027        0.9235346746
 C         3.5289463882        3.1392026082        0.0569000442
 C         4.0444728744        2.1900736241       -1.1183952065
 C         5.3035024566        2.6969701296       -1.8258917180
 O         2.5216897465        2.0146306060        2.0633722632
 O         3.6046872558        1.1013574286       -1.2576392936
 C         3.0261986673        4.5070414035       -0.4514131265
 C         4.6808171079        3.4377673912        1.0995785496
 C         5.5633366262        1.9018267352       -3.1213454549
 C         4.4724056655        2.1563508817       -4.2669691691
 C         5.1067083701        1.9745343344       -5.8095294996
 C         4.9439901486        0.3887893800       -5.8598496797
 C         4.0236701380       -0.3852638357       -6.9188928855
 C         4.1602209997        2.7213981188       -6.8237590854
 C         6.5674260328        2.2729650698       -6.0030263791
 O         3.3242269048        2.4681086141       -4.0918375855
 O         5.5302933915       -0.2792066482       -5.0333298055
 C         4.3256111213       -1.9136508306       -6.8184910776
 C         3.2964749673       -2.6927104803       -5.9711755454
 C         2.9984431815       -4.2115763784       -6.4421302759
 C         1.8817167915       -4.8272941532       -5.5786685484
 C         0.3964964278       -4.3286589521       -5.5563364072
 O         2.7748704857       -2.3359555911       -4.9251099295
 O         2.1738940914       -5.8014692950       -4.9184329805
 C         2.6065018303       -4.1758389502       -7.8976244282
 C         4.3933680929       -5.0721951043       -6.3062145339
 C        -0.2922897448       -4.7115252431       -4.2523409568
 C        -1.1762437391       -3.5886858984       -3.8234985393
 C        -1.8443028508       -3.5916633952       -2.4097113240
 C        -1.5324986467       -2.2199725624       -1.8220923304
 C        -2.0574035294       -0.8895740876       -2.3565094062
 C        -3.3503107940       -3.6275809356       -2.6729201253
 C        -1.4766045440       -4.7808873622       -1.4487276912
 O        -1.4494257988       -2.6952179086       -4.6025313869
 O        -0.7051797236       -2.1810555508       -0.9230316036
 C        -3.2766756413       -0.3009139295       -1.5063561434
 C        -3.7858915564        1.0176156374       -2.0346512258
 C        -5.0021126639        1.7194426184       -1.2615415022
 C        -4.4935085332        2.1101589916        0.0716737794
 C        -3.2236162516        3.0113642987        0.1251904880
 O        -3.3805067107        1.5812181701       -3.0485980896
 O        -4.8345939878        1.5255721392        1.1358672145
 C        -5.4866175917        2.9779316662       -2.0758075677
 C        -6.2003868267        0.7250672116       -1.2452808090
 H        -3.5301897322        3.2605513162        6.9046358563
 H        -4.2377998777        4.5616230984        5.9561442225
 H        -5.2606032876        3.7391816940        7.1703846533
 H        -4.7963862021       -0.1082414543        7.6645193377
 H        -4.8937794325       -1.6568891964        6.8278784450
 H        -6.3230023361        1.7039831878        7.4316774517
 H        -7.4888313308        0.7867334659        6.2720172203
 H        -7.2965273044        2.4000451482        6.0883615846
 H        -6.9879827209        0.3579441350        3.8322498632
 H        -7.0202705256        2.1863681041        3.8808229450
 H        -5.6807783576        1.3156430889        3.1719270328
 H        -2.8045771956       -1.7759853757        7.8246006444
 H        -2.5459935491       -1.6869024245        6.0938551362
 H         1.3234134662        0.8394667568        5.8422575162
 H         2.3340413651       -0.5749721135        6.0567435783
 H        -0.0110284757        1.9795296370        7.4030077474
 H         1.2906701696        1.1516625130        8.0782465241
 H        -0.0676428370        1.3349137864        9.0015902357
 H        -1.0148023331       -2.1224817942        8.3583811084
 H         0.6931069945       -1.5729652510        8.7737748628
 H        -0.7097593826       -0.9983704630        9.7232798177
 H         1.4683727654       -1.5764200422        4.0220374615
 H         2.0627790236       -0.0179268369        3.5245459293
 H         1.7344920392        0.1127917244        0.4202038346
 H         0.5102987024        0.5075649690       -0.8376829578
 H         1.0941475810       -2.1936781314        0.4869639075
 H         1.0305913418       -2.9462620700        2.1437275047
 H         2.0169253963       -1.6133601808        1.8452311828
 H        -2.4454090725       -1.2364902636        2.4688490120
 H        -1.6297168563       -2.2408021595        1.0976188110
 H        -1.2938053648       -2.7091053377        2.7518977705
 H         1.0221494659        2.6553051427       -0.7565278378
 H         0.2291430713        2.8803936854        0.7956950541
 H         5.2251079951        3.7653773688       -2.0803449983
 H         6.2191295895        2.6449002247       -1.1971050029
 H         3.6726334822        5.3039053775       -0.2946931483
 H         2.1037640525        4.8333599912        0.1052864410
 H         2.8605338069        4.4564056458       -1.5404967527
 H         5.4316378753        4.1803094012        0.7114107052
 H         4.2535357796        3.6925042158        2.0856851970
 H         5.2578472758        2.5174907316        1.1637837664
 H         5.5113107994        0.8697397977       -2.7874773973
 H         6.6052129087        2.1011875256       -3.3294948872
 H         2.9790717596       -0.2840326207       -6.5638176876
 H         4.1541153080        0.0746123887       -7.9136462194
 H         4.3485776808        2.2540410904       -7.8736187340
 H         4.4499620076        3.7230786174       -6.9570853652
 H         3.2009228302        2.5915254392       -6.5073504129
 H         7.1678623110        2.2907073504       -5.0518623616
 H         7.1357823735        1.6669768427       -6.6935369315
 H         6.6500082412        3.2700645695       -6.4234624487
 H         4.2917526896       -2.2973180092       -7.8559865895
 H         5.3160674534       -2.1387869242       -6.2408834202
 H         0.4572280002       -3.2433027009       -5.7389242305
 H        -0.1444220114       -4.6298097280       -6.5221428112
 H         1.8252445039       -3.3951152010       -8.1578929514
 H         2.0530388079       -5.0586831241       -8.2066429609
 H         3.5121666201       -4.2020884103       -8.5279531629
 H         4.6281299289       -5.0293239930       -5.2879987068
 H         4.3441897929       -6.1716973679       -6.5944996593
 H         5.1891581381       -4.6917027205       -6.9448603822
 H         0.4575031468       -5.0670031635       -3.4734948298
 H        -0.8852051840       -5.5839255318       -4.3697922964
 H        -1.3087483562       -0.1467799992       -2.3125163691
 H        -2.3785257856       -0.9278933293       -3.4094099489
 H        -3.8531055334       -3.3018682097       -1.7672643907
 H        -3.7516007171       -4.6858724101       -2.7483741246
 H        -3.7617407678       -3.0873150090       -3.5553799812
 H        -0.4431704510       -5.1138422364       -1.5069959157
 H        -1.6884186908       -4.4555300717       -0.4173986404
 H        -2.1146998895       -5.6376071937       -1.6164365355
 H        -4.0158535512       -1.0977885158       -1.5455791628
 H        -3.0989480908       -0.0530149965       -0.4207117515
 H        -2.3280058155        2.4125491072       -0.1941989106
 H        -3.2802464252        3.9021173326       -0.4203977565
 H        -3.0317429046        3.2781130957        1.0901511238
 H        -6.6180151558        3.1019524353       -2.0308036743
 H        -5.2817146851        2.8584977922       -3.0883347753
 H        -5.0335531756        3.9052472791       -1.7788073882
 H        -6.6594287606        0.4857746070       -2.1260732348
 H        -5.9188808678       -0.1620694301       -0.7389665114
 H        -6.9303015588        1.1562574888       -0.5173230838
 Na       -3.1032876335        1.1373617614        2.7803494225
