155

 C        -6.8189237105       -9.7425971689        0.7786313429
 C        -7.4094368358       -8.3665479940        0.4146562530
 C        -6.5000217734       -7.4349601205       -0.5183497060
 C        -5.4048736109       -6.7741381380        0.5654857270
 C        -4.5102926426       -5.4594587532        0.3920260008
 C        -5.6410540926       -8.2157226109       -1.5469154912
 C        -7.2181247046       -6.2945046847       -1.2592686143
 O        -8.5095009849       -7.9401266099        0.7335479772
 O        -5.2616167699       -7.3861111350        1.5865516579
 C        -5.2808760040       -4.3129699342        1.0117434663
 C        -4.2629177851       -3.1066412369        1.0360566764
 C        -4.3432915846       -1.9605183794        2.2340363676
 C        -4.1664791153       -0.5448604674        1.5273191368
 C        -2.7341644758        0.1043817205        1.4492666617
 O        -3.3092392937       -2.8851237710        0.2878591065
 O        -5.1145690789        0.0081429557        1.0419091268
 C        -5.8099846232       -1.9098987473        2.8928004875
 C        -3.4198053895       -2.3278431968        3.3931052005
 C        -2.6458834833        1.2048882996        0.2607839988
 C        -1.2224461286        1.7346780471        0.1669843289
 C        -0.8345620528        2.7781306478       -0.9080664068
 C        -0.4157976844        4.0194902979        0.0629680404
 C        -0.9738379192        5.4220550129       -0.2329545495
 C         0.4222376882        2.4440875651       -1.7515833028
 C        -2.0049177903        3.1189945941       -1.8237487303
 O        -0.3688516260        1.3150981196        0.9609969647
 O         0.4438949180        3.8815101652        0.9544976527
 C        -0.8158079587        6.4087624057        0.9997376255
 C        -1.7688002813        6.2003598734        2.1467399219
 C        -1.5777872737        7.1931070232        3.3986096902
 C        -0.2124390885        6.7702087684        4.0173734759
 C        -0.1519389218        5.7725268660        5.1946772872
 O        -2.5166855075        5.2468803846        2.1568199742
 O         0.8427665571        7.2781797660        3.5805689312
 C        -1.5575676081        8.6677470265        3.0938136931
 C        -2.8325660070        6.9702619756        4.3784850467
 C         1.2516002502        5.2625429722        5.4432956383
 C         1.5393050688        3.9376414124        4.7781265106
 C         2.6290931413        2.9576551754        5.3384315132
 C         3.4778600900        2.3974987742        4.1972192330
 C         4.6684616093        3.2762589501        3.7562977680
 C         3.4737444375        3.6411881316        6.4065210044
 C         1.7359160783        1.7451419584        5.8188160173
 O         0.8873603356        3.4938133693        3.8475760468
 O         3.1760942206        1.3918390992        3.5877956396
 C         5.3739083788        2.7304991491        2.5164250750
 C         4.6238125748        2.9806477845        1.2144496054
 C         5.1443627500        2.2174233435       -0.1270854414
 C         4.1745454108        0.8971473015       -0.1885605945
 C         4.6528502633       -0.4184404340       -0.8124518540
 O         3.6641582808        3.7510235392        1.1352568414
 O         3.0343120767        1.0505824711        0.2828308874
 C         4.7375575931        3.1939960065       -1.3915546995
 C         6.6251784140        2.0232196707       -0.3769260590
 C         3.4128783463       -1.3062288383       -1.0795570063
 C         3.5229767313       -2.0208917150       -2.4389678718
 C         2.2919422212       -2.7999298850       -3.2992952583
 C         1.4465245552       -1.5719874304       -3.7995542827
 C         1.4701945702       -1.1166206220       -5.3103971415
 C         3.1784973597       -3.4971574590       -4.3968670527
 C         1.5078612077       -3.7453420429       -2.4771302219
 O         4.5681508862       -1.9194415706       -3.0763558835
 O         0.8221954207       -0.9435642796       -2.9605523039
 C         0.6194019085       -1.8743101532       -6.2399893597
 C         1.3210983029       -2.4879107104       -7.4698133579
 C         0.4196473759       -3.5450112497       -8.2818955273
 C        -0.1238243563       -4.6201199592       -7.3265357149
 C        -0.9960321354       -5.7807742837       -7.8607840505
 O         2.3953686749       -2.1288631946       -7.7653435001
 O         0.2468036309       -4.6529182830       -6.1718627787
 C        -0.5919220908       -2.7987772208       -9.1722905043
 C         1.5093975652       -4.2641754155       -9.2534988579
 H        -6.0334808984       -9.5048110658        1.5125538555
 H        -7.5748507489      -10.4808587550        1.0994533750
 H        -6.1555763503      -10.1802151794        0.0245249547
 H        -3.5767879052       -5.7420660911        0.9348857826
 H        -4.4515768745       -5.2036280244       -0.6068135141
 H        -5.3668575071       -7.6379485111       -2.4741023300
 H        -6.2390886055       -8.9983061240       -1.9330629213
 H        -4.6589012045       -8.6327799930       -1.2611507831
 H        -7.1304652309       -6.4270221612       -2.2997986992
 H        -8.1931569072       -6.3035270353       -0.8119404983
 H        -6.6369903764       -5.3722929573       -0.9999088261
 H        -6.0043992716       -3.9768523144        0.2958893079
 H        -5.7479464282       -4.4984654749        2.0239422598
 H        -2.7220816004        0.6597409895        2.4761956723
 H        -1.9512075460       -0.7136278793        1.4190265711
 H        -5.9026187835       -1.1064818993        3.6839252114
 H        -6.0248999915       -2.9068673293        3.3496148874
 H        -6.5483571134       -1.8149532250        2.1397989221
 H        -3.7668222292       -3.2882594009        3.7332101106
 H        -2.3964393807       -2.4712708253        2.9899359850
 H        -3.4623464161       -1.5080481007        4.0390188939
 H        -3.3512634190        1.9588107552        0.4580653383
 H        -2.8959273491        0.6839582259       -0.6473840233
 H        -0.3782477304        5.7555168937       -1.1062833011
 H        -1.9668563134        5.4415624386       -0.6354379030
 H         1.0743820464        1.8974580821       -1.1320669986
 H         0.9201871462        3.4321453809       -2.0282468238
 H         0.1050569477        1.9621271565       -2.6573168954
 H        -2.2451450106        2.1832430037       -2.4251631621
 H        -2.9074846195        3.3344392236       -1.2274815022
 H        -1.8427990055        4.0346000305       -2.4768316552
 H         0.1774063183        6.2377760742        1.3505648723
 H        -0.7201148990        7.5186080152        0.6381527172
 H        -0.4803216702        6.2532300506        6.1332616134
 H        -0.8510681112        4.9495209757        4.9872192529
 H        -0.7423508922        8.7875824202        2.4594033861
 H        -1.3884437591        9.1620578368        4.0550071832
 H        -2.4102286858        9.0761089359        2.6054120808
 H        -3.6678386760        7.0704781270        3.8033947293
 H        -2.9831966467        5.9401433751        4.6193893639
 H        -2.9816639814        7.7130075815        5.1514525816
 H         1.4871205830        5.2267838198        6.4588971356
 H         1.9883706851        6.0265649978        5.1418205454
 H         4.2683004397        4.2652408123        3.5456481910
 H         5.3631330968        3.3587226590        4.5343548759
 H         4.0416493858        2.9295813027        6.9688625841
 H         2.9071650124        4.2719390255        7.0768122085
 H         4.3579486610        4.0826644943        5.8154530394
 H         2.1614707312        1.1700823716        6.6413448310
 H         0.8212526097        2.0473953112        6.2780535659
 H         1.6825036468        1.0103155096        5.0730942650
 H         6.3253733685        3.2378404120        2.3830339100
 H         5.7358368079        1.6592221756        2.7156989284
 H         5.2342987918       -0.1178010694       -1.6077336238
 H         5.2482870310       -0.9004975968       -0.0415799043
 H         5.1873544011        4.1603199450       -1.2878690952
 H         3.6328083418        3.3718153888       -1.5186627374
 H         5.1845809555        2.8170511261       -2.3113676801
 H         6.6793291154        1.7391589825       -1.4167887115
 H         7.1077563603        2.9293429661       -0.1745509659
 H         7.0539503881        1.2139729858        0.2886021327
 H         2.4930069654       -0.7918250855       -0.9903021064
 H         3.2952747410       -2.0922726167       -0.3513374417
 H         1.2263840412       -0.0027165395       -5.3133685611
 H         2.5032292812       -1.2696857070       -5.6207895152
 H         3.8741756889       -2.7227690879       -4.8032967049
 H         2.4396759440       -3.7885370421       -5.1425827343
 H         3.6938532825       -4.2539902324       -3.8534419872
 H         1.0172344957       -3.1958005056       -1.7267795435
 H         0.7470392040       -4.1400399124       -3.1874482015
 H         2.1771777158       -4.5468247616       -2.0858166447
 H        -0.0130254793       -2.6750439774       -5.9154753935
 H        -0.1606624161       -1.2179971366       -6.6885531657
 H        -2.0876118585       -5.6400928299       -7.8030764693
 H        -0.8139738844       -6.0303636583       -8.9349888932
 H        -0.8396684834       -6.6277226196       -7.1864325438
 H        -0.0662726042       -2.5531947561      -10.1370955615
 H        -1.0698577272       -1.9625577881       -8.6663643694
 H        -1.4250364414       -3.4578635898       -9.4979833099
 H         1.1265332553       -4.8188558474      -10.1532935713
 H         2.3469322431       -3.4927794234       -9.5577546571
 H         1.9605914379       -5.1094299233       -8.7365843991
 Na        1.6782193358        2.2818402903        1.7857567886
