155

 C        -4.7073539135        3.7677488507        6.2784949048
 C        -4.6642062908        2.7359530978        5.2255380742
 C        -5.4744486554        1.4580461459        5.4192172240
 C        -4.4789951735        0.3215319286        5.6176121682
 C        -4.5371174901       -0.5271556644        6.8762803336
 C        -6.6313850610        1.4370582015        6.5285810270
 C        -6.2290066331        1.2333124644        4.0439330873
 O        -3.9135278453        2.8751141098        4.2883909938
 O        -3.9160898893       -0.1032611703        4.5851599004
 C        -3.1190657473       -1.1364016266        7.0812418664
 C        -1.9847747538       -0.0384496927        7.5029166457
 C        -0.4812572344       -0.3137885611        7.7924422048
 C         0.1854188573       -0.9194097761        6.3913703614
 C         1.1950393166       -0.1273876819        5.6249187813
 O        -2.3542762711        1.0987373691        7.4048370301
 O        -0.2595951589       -1.9938728283        5.9446501358
 C         0.2664298713        0.9558567334        8.2771732602
 C        -0.3046397680       -1.4904864041        8.9043072299
 C         1.2167945927       -0.5439298814        4.1607978349
 C        -0.0553289308       -0.3184208520        3.4123385766
 C        -0.2142322301       -0.9953966531        2.0118915301
 C        -0.3422033977        0.2304908846        0.9301786867
 C         0.8621318633        0.5025445692       -0.0544023005
 C         0.9312340548       -2.0421833699        1.7913418115
 C        -1.6483770404       -1.7254224213        1.9330707949
 O        -0.9803897691        0.3398316353        3.8849530805
 O        -1.2953527321        0.9523297189        0.8560992513
 C         1.2353043617        1.9272593186       -0.0741154593
 C         2.4312120788        2.4187577444        0.8527069741
 C         3.5444538239        3.3743571551        0.2207157795
 C         4.0592499240        2.4296185644       -0.9377297313
 C         5.3241532942        2.7598587511       -1.7462357719
 O         2.5943051369        1.9131956744        1.9347373410
 O         3.4249584612        1.3561061702       -0.9655148258
 C         2.9387393152        4.6727378749       -0.4538957104
 C         4.5976834153        3.7542602729        1.3573959190
 C         5.3466557128        1.8293858339       -3.0186819230
 C         4.5375100335        2.3309694234       -4.2230515315
 C         5.0202725998        2.0229604730       -5.7444013287
 C         5.0121743086        0.3372840337       -5.7666841943
 C         4.1292319051       -0.2704226706       -6.8424368774
 C         3.9963616417        2.6499549332       -6.6965680067
 C         6.4946635759        2.3866028603       -5.9782726682
 O         3.3203103618        2.6608867913       -4.1437844054
 O         5.7695735402       -0.3180984633       -5.0784336767
 C         4.2838167185       -1.7918920306       -7.0763059195
 C         3.2878358314       -2.6215696456       -6.0456091833
 C         3.1037142434       -4.1791174591       -6.3616333428
 C         1.9917576958       -4.9858348144       -5.5892480121
 C         0.5326903468       -4.4281557158       -5.5508631601
 O         2.9859235091       -2.0953851676       -5.0277566981
 O         2.3171002821       -6.0795521025       -5.1558366982
 C         2.6273751631       -4.2679822634       -7.8959301872
 C         4.4947374141       -4.8917514643       -6.2501214383
 C        -0.3477279427       -4.8513541192       -4.3785047972
 C        -1.1761822843       -3.6639108061       -3.8697520462
 C        -1.9937485358       -3.7904385992       -2.5050712233
 C        -1.6575387161       -2.3380982673       -1.8110263355
 C        -2.3114150764       -1.1182874573       -2.4568998239
 C        -3.4752923333       -3.9165776738       -2.7825074768
 C        -1.5170802161       -4.8276260650       -1.5454510536
 O        -1.2170927447       -2.6051794782       -4.4886348044
 O        -0.8368548385       -2.2400625350       -0.9082286110
 C        -3.3440620246       -0.4776600346       -1.5182445160
 C        -3.7749440453        0.9342022756       -2.0799105961
 C        -4.9740449034        1.6390696709       -1.3369535894
 C        -4.3293293229        2.0466565147        0.0734447522
 C        -3.1856203024        2.9269158942        0.0811376170
 O        -3.3040813143        1.4255837701       -3.0462633378
 O        -4.7546735651        1.5343876194        1.0529995526
 C        -5.4492286753        2.9483068273       -2.0097425545
 C        -6.1990781617        0.7118857386       -1.1369620691
 H        -3.7229983651        3.6904754477        6.7657270431
 H        -4.8213450901        4.7920550084        5.8061334150
 H        -5.5147829465        3.6427861508        6.9901225731
 H        -4.9154213815       -0.0177960288        7.7468466103
 H        -5.1763860187       -1.3784427275        6.6485472159
 H        -6.2130715991        1.9211896777        7.4392686205
 H        -6.9788063341        0.4240752370        6.5598177625
 H        -7.4712513495        2.0555893154        6.1129127476
 H        -6.8227563475        0.3667352297        4.0975363534
 H        -6.8971668558        2.0524162637        3.8834946200
 H        -5.6035183030        1.1513756012        3.1669966905
 H        -3.1012018029       -1.9598668547        7.8584412810
 H        -2.7386650954       -1.5361216277        6.1638448886
 H         1.1229527815        0.9803235451        5.7857555283
 H         2.1819331565       -0.3819610394        5.9903481350
 H         0.5519825318        1.6047004165        7.4728350470
 H         1.2501224386        0.7358860548        8.7638827335
 H        -0.2579893049        1.6110527974        9.0754129466
 H        -0.7095282200       -2.3882674394        8.5144101743
 H         0.7039819783       -1.5194273624        9.2466578021
 H        -0.9614958726       -1.1652015229        9.6667581445
 H         1.6489839245       -1.5364249926        3.9324215377
 H         1.8288238902        0.2745837239        3.7182730644
 H         1.7717598954       -0.0580158504        0.3169212483
 H         0.4287270954        0.0704562171       -0.9723081682
 H         0.7580273467       -2.5387540660        0.8236094700
 H         0.9997144874       -2.8089620418        2.5572623607
 H         1.9362867416       -1.6338639046        1.6256117368
 H        -2.3404585968       -0.9468479055        1.8613395854
 H        -1.5693940489       -2.3222685698        1.0416207864
 H        -1.7458855619       -2.2143530268        2.9154499591
 H         1.3397175239        2.3959729370       -1.0729339968
 H         0.4504100721        2.5580752101        0.3899035194
 H         5.3898846398        3.7585109446       -2.1683892336
 H         6.1452936841        2.6176920631       -1.0582622190
 H         3.6116850574        5.1675813113       -1.2523561527
 H         2.6718773916        5.4289919025        0.2443968968
 H         2.1016702471        4.3737456962       -1.0430553801
 H         5.2720260892        4.5403671915        1.0356325743
 H         3.9156260559        4.0707121304        2.1460296313
 H         5.2046094256        2.9282727483        1.7279411910
 H         4.9623055998        0.8264045398       -2.8021793894
 H         6.4131641989        1.8183806760       -3.2844100104
 H         3.0615636647       -0.0718817149       -6.6833144790
 H         4.4883263939        0.2843448714       -7.7201889610
 H         4.4658274745        2.9472311469       -7.6265436803
 H         3.8229629596        3.6364196084       -6.2853869202
 H         3.1233727872        1.9753985034       -6.8211230926
 H         7.1162975769        1.5517415110       -5.7731782354
 H         6.6091029133        2.5832623434       -7.0544624000
 H         6.8825415981        3.2933503160       -5.4752763215
 H         4.1380449956       -1.8452581603       -8.1429229843
 H         5.1506846812       -2.1941155136       -6.6941736994
 H         0.5947508252       -3.3108044771       -5.6279189050
 H         0.0486177287       -4.6309487001       -6.4955121023
 H         1.6772429783       -3.8728703833       -7.9887152135
 H         2.3858033006       -5.2464436946       -8.2080260058
 H         3.2658774621       -3.7483561079       -8.5727559241
 H         4.8978182647       -4.8313922133       -5.1878673075
 H         4.4108406691       -5.9093029246       -6.5639999896
 H         5.2213100845       -4.4793284075       -6.9796391073
 H         0.3242146135       -5.1108753976       -3.6079527472
 H        -0.9528733416       -5.7940809120       -4.6360872459
 H        -1.5112773162       -0.3036624778       -2.5263548841
 H        -2.6281127700       -1.2042553681       -3.4847361671
 H        -4.0492347112       -4.5484963362       -2.0869470706
 H        -3.6777351105       -4.3498014205       -3.7183224945
 H        -3.9644125054       -2.9428597739       -2.8672208947
 H        -0.7348976906       -4.4903063696       -0.8484006352
 H        -2.3442598917       -5.2779019922       -1.0447601266
 H        -1.0526148450       -5.6627934841       -2.0966540233
 H        -4.1758223265       -1.1642641135       -1.4419291881
 H        -2.9396105954       -0.4414424806       -0.5517983180
 H        -2.3787704409        2.3359299857       -0.2575727797
 H        -3.2983208751        3.8018943092       -0.6755791459
 H        -2.9211492076        3.3490158514        1.1106068569
 H        -5.9647985394        3.5327397284       -1.2432837012
 H        -6.1507377378        2.8037794619       -2.8741862946
 H        -4.6113582647        3.5645431791       -2.3665669957
 H        -6.4205586793        0.4299192595       -2.2041343823
 H        -6.0125748360       -0.2227041185       -0.5640251291
 H        -7.0900318103        1.1446045883       -0.7934340301
 Na       -3.0412886858        1.0324351588        2.7868539139
