155

 C        -4.3719722478        4.9463920223        4.5683923949
 C        -4.4752237117        3.4676826336        4.0186213474
 C        -5.4067902622        2.4424841017        4.8418759832
 C        -4.6670267235        1.1173188552        5.3191530738
 C        -4.4317084493        0.6109384475        6.7983773112
 C        -6.1288793681        3.0498702539        6.0538645235
 C        -6.5088721288        1.9460267786        3.8531556706
 O        -3.7247984111        3.0813545841        3.1449289050
 O        -4.0870806503        0.4401148754        4.4621009884
 C        -2.9477570004       -0.1414516700        6.7550884594
 C        -2.0255233390        0.4465408639        7.7858099440
 C        -0.7458598803       -0.4580008603        8.1995684337
 C         0.0110817664       -0.7253098675        6.8420600861
 C         0.8429969074        0.4325663950        6.2340502013
 O        -2.1659169617        1.5608330876        8.2286648610
 O        -0.2641388730       -1.6487296109        6.1181266387
 C         0.1419796367        0.2275034170        9.2112271848
 C        -1.1612760766       -1.8541652347        8.7955172726
 C         1.1362081598        0.1930981133        4.7422210862
 C        -0.1505375182       -0.1783585930        3.9955316549
 C        -0.1726017824       -1.2363569873        2.7426234371
 C        -0.2110608820       -0.2999834410        1.4391989694
 C         0.8164428647       -0.4969337588        0.2312396858
 C         1.1269808993       -2.0748045755        2.7528708913
 C        -1.5110432882       -2.0559971026        2.7297615131
 O        -1.0423222086        0.6211169391        4.0914151451
 O        -1.1390377891        0.4721054266        1.2584165975
 C         1.1465276923        0.8982267173       -0.2834201878
 C         2.0404292056        1.5975441964        0.7478850805
 C         2.9772872143        2.8235681501        0.2945232621
 C         4.3546369794        2.3788462006       -0.3673437463
 C         5.4062115146        3.4485287279       -0.8354232456
 O         1.8719166181        1.3464018637        1.9025893058
 O         4.6612069180        1.1912289026       -0.4412081681
 C         2.1033089290        3.8647439807       -0.4015279236
 C         3.4310679758        3.4219291895        1.6464845473
 C         5.9348040042        3.2284219865       -2.2851523072
 C         4.9341312973        3.7579695443       -3.3479663543
 C         5.2028062516        3.6375112365       -4.8677642620
 C         5.4617918284        2.1253939807       -5.2685234690
 C         4.2705358887        1.1373646823       -5.2392954641
 C         4.0299230483        4.2896613938       -5.5183533375
 C         6.5543031625        4.4318758921       -5.1604523928
 O         3.9549104228        4.3463309671       -2.9465546697
 O         6.5752987332        1.7621651570       -5.6374385803
 C         4.6023099520       -0.3132311547       -5.7100334873
 C         3.4202728248       -1.3296510626       -5.3093369658
 C         3.4430508032       -2.7078319336       -6.0928029187
 C         2.4730968776       -3.6597260309       -5.2414830899
 C         0.9742914270       -3.5818699633       -5.4346294729
 O         2.5443764309       -1.0098698170       -4.5430987319
 O         2.9134340904       -4.3171278416       -4.3180390224
 C         2.8771114401       -2.4312328941       -7.4877617893
 C         4.8869099169       -3.2946868279       -6.0385649608
 C         0.1939093737       -4.5528087847       -4.4130630499
 C        -1.1229940973       -4.8222883811       -4.9840179587
 C        -2.1932501103       -5.6691636864       -4.1226637172
 C        -2.4943554385       -4.6576841866       -3.0011330084
 C        -2.9811817435       -3.2405301032       -3.4990682545
 C        -3.3676555299       -5.9916020732       -5.1052454150
 C        -1.6476589890       -6.9936963542       -3.4698871255
 O        -1.5189657000       -4.3673841900       -6.0570864708
 O        -2.1933535638       -4.8696833151       -1.8287202187
 C        -3.9547875786       -2.5901888309       -2.4275358072
 C        -3.9962568685       -1.0710838507       -2.4709848490
 C        -5.0694149104       -0.2225472273       -1.6915199213
 C        -4.2293800285        0.4149954444       -0.4501385602
 C        -3.3663191870        1.6106553802       -0.7726544625
 O        -3.1199044089       -0.4438215721       -3.0947170823
 O        -4.2797795674       -0.1359759930        0.6015195976
 C        -5.5068236694        0.8137184712       -2.6688888369
 C        -6.2203564649       -1.1182736969       -1.1692693625
 H        -3.6283685819        5.0772709493        5.3420279202
 H        -4.1846717173        5.5509397912        3.7175099514
 H        -5.3776788772        5.2451562766        4.8895403559
 H        -4.2485972974        1.4169314004        7.5462887815
 H        -5.2696479313        0.0088002630        7.0094471828
 H        -5.4169869360        3.6152671454        6.6430625285
 H        -6.4821114572        2.2926606642        6.7896489446
 H        -6.8678446975        3.7842706442        5.7960934341
 H        -7.1325374601        1.1331385935        4.2367273209
 H        -7.0821217623        2.8304775456        3.5329722295
 H        -5.8745415554        1.5336243540        2.9941256073
 H        -2.9577428024       -1.2393207800        6.8817554714
 H        -2.5960685026        0.1009535792        5.8114910806
 H         0.2240695001        1.3383198632        6.2657455597
 H         1.8185089931        0.7134397229        6.7172586150
 H         0.9153630539        0.8039085770        8.7690707293
 H         0.6921359045       -0.5864299478        9.7699631421
 H        -0.4988670849        0.7198736168        9.8899849093
 H        -1.5655954542       -2.5860415145        8.0408233819
 H        -0.2077870405       -2.1766454148        9.2492664332
 H        -1.9349881900       -1.8611961714        9.5909844591
 H         1.9572171006       -0.5678419198        4.6647776383
 H         1.5693448461        1.1283122946        4.3502275153
 H         1.6924506655       -1.0369263694        0.4545925582
 H         0.2638931982       -1.1635118782       -0.4069798880
 H         1.3269462505       -2.8286106513        1.9626436183
 H         1.1645297539       -2.6189833905        3.7365209018
 H         1.8575054744       -1.3059837853        2.6966907604
 H        -2.1061662350       -1.6986240997        3.5280082877
 H        -2.1095902145       -1.7757448422        1.8370957616
 H        -1.4478713798       -3.1077107809        2.9039714396
 H         1.6973197336        1.0376165332       -1.2030558037
 H         0.1979736443        1.4607279658       -0.4278642731
 H         5.1269219472        4.5137852180       -0.6482309031
 H         6.2301963691        3.2280327168       -0.1705413979
 H         1.7059142115        3.4217480520       -1.2689878234
 H         2.7140423703        4.7932933922       -0.6344696498
 H         1.2805737474        4.2246873009        0.2378749313
 H         4.1464330449        4.2603328814        1.5945530950
 H         2.5648494673        3.6871482485        2.2424264473
 H         3.9421586648        2.6932794627        2.3461014287
 H         6.0860207154        2.1373155387       -2.4459308666
 H         6.8763998424        3.7592029520       -2.3877592837
 H         3.9894101343        0.9698004829       -4.2139464700
 H         3.3936366428        1.4798546255       -5.7985537671
 H         4.3544285587        4.9692845838       -6.3060868136
 H         3.4154606924        4.9352020651       -4.8435082100
 H         3.4377509380        3.4039017831       -5.8379959512
 H         7.2274247652        4.0463716433       -4.3584746203
 H         7.0428126369        4.0955133802       -6.0425478800
 H         6.3201819532        5.4613470587       -5.1130476162
 H         4.6374888915       -0.3306883537       -6.8496746205
 H         5.5446744115       -0.8740693765       -5.3855909506
 H         0.8495543670       -2.5024597350       -5.2091709445
 H         0.6971347985       -3.9842809709       -6.4102401206
 H         1.9784864042       -1.8958894917       -7.4486596668
 H         2.6200749239       -3.4400745289       -7.8883525630
 H         3.5231256671       -1.9072220900       -8.1066940549
 H         5.2746507652       -3.1903484328       -5.0317557464
 H         4.9518212772       -4.3709853474       -6.3360803481
 H         5.5281877236       -2.8885535490       -6.8100670964
 H         0.0352377256       -4.1018133849       -3.4345485164
 H         0.7575626827       -5.5114008711       -4.2621423706
 H        -2.0935917711       -2.6325763393       -3.6993316006
 H        -3.4249436149       -3.3604574562       -4.4699552386
 H        -3.0430015642       -6.8284812816       -5.6512554340
 H        -3.5738527360       -5.1146933706       -5.7524206900
 H        -4.2777556569       -6.2599125849       -4.5245485498
 H        -2.4154499747       -7.8322844724       -3.5838169476
 H        -0.6971792099       -7.3457820688       -3.8487784549
 H        -1.4591006873       -6.7874346629       -2.4195347162
 H        -4.9378446071       -2.9770328913       -2.5586755371
 H        -3.6837650118       -2.8327774564       -1.4060862429
 H        -3.0253556117        1.5329265141       -1.8110236026
 H        -3.9296018760        2.5553271429       -0.7202528707
 H        -2.4344522965        1.6671428883       -0.1236474858
 H        -6.4470880679        1.1797277911       -2.5567071135
 H        -5.6052293763        0.3937763307       -3.6841569911
 H        -4.8004617516        1.6862785654       -2.8127314719
 H        -6.7971672181       -1.4469596048       -2.0308543698
 H        -5.7499868394       -1.9356164207       -0.7852681661
 H        -6.8470982898       -0.6755587562       -0.4015036373
 Na       -3.1375425801        0.9717122649        2.4051224552
