155

 C        -3.8735164036        4.7658699805        2.7354541102
 C        -3.9610560829        3.3216727950        2.9236077372
 C        -5.1204349698        2.7266790222        3.7853874546
 C        -4.4220414721        1.6080757841        4.5087134744
 C        -4.0499410190        1.8347013792        5.9672129610
 C        -5.7918994995        3.8094860578        4.7093774744
 C        -6.0824244362        2.0817132596        2.8247491718
 O        -3.0964936293        2.6501690933        2.3481998375
 O        -4.0878735765        0.5612048487        3.9467626817
 C        -3.4251148142        0.6579545728        6.5596946602
 C        -2.0306154223        0.9239116075        7.1230841341
 C        -1.1860324658       -0.0728314186        7.9445986399
 C        -0.4045271020       -0.8969200226        6.8097430823
 C         0.9174656534       -0.2816216460        6.1145653094
 O        -1.6328682114        2.0548449506        6.9044336556
 O        -0.8758765134       -1.9348141211        6.4645365706
 C        -0.2006158257        0.8654458867        8.8201552149
 C        -1.8750871624       -1.1103071560        8.7819023788
 C         1.2755634028       -1.0711879267        4.6956351947
 C         0.2316043824       -0.6721898913        3.6304495388
 C        -0.0936386937       -1.7148150812        2.3913770466
 C         0.1047507424       -1.0152784108        1.0446063797
 C         1.4126206383       -0.9871116773        0.2921671309
 C         0.8401893437       -2.9686206517        2.5765474240
 C        -1.5201769111       -2.0891496421        2.7326307533
 O        -0.4420476056        0.2882204707        3.7632037743
 O        -0.8890835381       -0.4224223069        0.5358416266
 C         2.1099350147        0.3493864390       -0.0844929532
 C         2.2913996532        1.2698469431        1.0106663098
 C         2.6610739311        2.7195656777        0.7587676776
 C         3.7648995053        2.9099705038       -0.2971491021
 C         4.3063381149        4.3362727211       -0.3126478365
 O         2.0073222965        0.8460092002        2.1713853956
 O         4.0573708068        1.9718902487       -0.9860894404
 C         1.5070741636        3.6262975057        0.3523949410
 C         3.1569958390        3.2169666680        2.2849543555
 C         5.2878073413        4.6061781666       -1.4096012138
 C         4.6277661760        4.3978361868       -2.7645232464
 C         5.6614956817        4.0938840104       -3.9754652174
 C         5.4977622751        2.5824996155       -4.1117323394
 C         4.3216964046        1.9597608877       -4.8805213224
 C         5.1347040531        4.8740254345       -5.1287713909
 C         7.0853229515        4.5272180039       -3.5786621420
 O         3.4296196024        4.5511979440       -2.9395322208
 O         6.4130126229        1.8210369681       -3.8444184949
 C         3.4542429333        1.0201392727       -3.9990212427
 C         2.5888673542       -0.0590264047       -4.8051797898
 C         3.2579901869       -1.3578255355       -5.3654730609
 C         2.3116519310       -2.6491673938       -4.7975353373
 C         1.0678347750       -3.0043164274       -5.4414971340
 O         1.4145245302        0.1111351303       -4.9689499484
 O         2.5806339414       -3.2021693386       -3.7731506345
 C         3.5493856416       -1.2184639593       -6.9103780078
 C         4.6496462571       -1.6140274152       -4.7938817365
 C         0.6049674182       -4.4032738867       -5.0419062314
 C        -0.8836196717       -4.6352423456       -5.4104185173
 C        -1.5614667328       -5.8214725271       -4.6683928280
 C        -2.2656626171       -5.2058029136       -3.4496072280
 C        -3.4618475928       -4.2479914433       -3.6197695469
 C        -2.5646479614       -6.4053477133       -5.7747177263
 C        -0.6629904191       -7.0104840824       -4.2008973139
 O        -1.5455758628       -3.7915559192       -6.0031393769
 O        -1.6847821489       -5.2279415852       -2.3940204741
 C        -4.1024904687       -3.8678153370       -2.2593516282
 C        -4.2735170484       -2.2909492257       -2.1740825494
 C        -5.1860873244       -1.8422089909       -1.0524891514
 C        -4.4669626577       -0.6724599285       -0.2162371196
 C        -4.1107958385        0.6132737092       -0.8459924140
 O        -3.7954827570       -1.4918691296       -2.9921749845
 O        -4.1777442864       -0.9199739110        0.9760628966
 C        -6.4184018515       -1.2602726361       -1.7617724302
 C        -5.6165542491       -2.9151070940       -0.0703317954
 H        -3.6657795365        5.1923350402        3.6978102330
 H        -3.0786675449        4.9098356519        2.0427101798
 H        -4.7371874630        5.0257141941        2.2007013776
 H        -3.2516629747        2.5926683257        6.2359821596
 H        -4.9153020548        2.1453401096        6.5014034728
 H        -5.0953894235        4.3427250667        5.3389391666
 H        -6.5785024212        3.3303730901        5.2419323635
 H        -6.2885029128        4.5441003084        4.0367576815
 H        -7.0664621204        1.9533635127        3.2446279116
 H        -6.2002504856        2.7413985550        1.9547354337
 H        -5.7229990536        1.1582882087        2.4897050324
 H        -4.0481928295        0.0612276720        7.2506328806
 H        -3.2357996870        0.0020990239        5.7436399015
 H         0.7933960669        0.7775234956        5.6591902981
 H         1.7378969973       -0.4340381228        6.8055650377
 H         0.1485901481        1.6995329301        8.2150187664
 H         0.6877108516        0.3121466918        9.1382992769
 H        -0.6758196662        1.2321016569        9.6490706391
 H        -2.7114688237       -1.6680987153        8.3135860591
 H        -1.2263970662       -1.8957214356        9.1954235530
 H        -2.4458617556       -0.7091390206        9.6497229069
 H         1.3471036354       -2.1444780474        4.7946803183
 H         2.2761346940       -0.7491621826        4.4402235210
 H         2.1603746410       -1.6788398689        0.7325447414
 H         1.3113056340       -1.5673578406       -0.6134172033
 H         0.4138233017       -3.7215404594        1.9057065161
 H         0.6150983140       -3.3535325299        3.4986794590
 H         1.9042601434       -2.7979335224        2.3646609768
 H        -2.0345008357       -2.6520698003        1.9407570500
 H        -1.7941828811       -2.5252860736        3.6509591599
 H        -2.0977091555       -1.2530323199        2.7490695767
 H         3.1214319820        0.0599175908       -0.3147180032
 H         1.7432267367        0.7383980409       -1.0286797314
 H         3.4164970549        4.9608429271       -0.6135951768
 H         4.6291019524        4.6045149109        0.6852192950
 H         1.4634781602        3.7932567177       -0.7087918123
 H         1.4909395663        4.5716625918        0.8394917826
 H         0.6153820005        3.0637311020        0.5782830262
 H         3.6636737116        4.2032977934        2.2218902205
 H         2.2631535162        3.0778057976        2.9800629140
 H         3.8981838733        2.5713977338        2.6736939555
 H         6.0885002480        3.9194421596       -1.2496179631
 H         5.6519000249        5.6424590392       -1.4306406463
 H         3.6706865157        2.7075236162       -5.3046401722
 H         4.9469815797        1.4012631249       -5.5908628013
 H         5.6160096212        5.8245043102       -5.2156177352
 H         4.0502510040        4.8182883979       -5.0070773984
 H         5.4104514020        4.4856403122       -6.2019978977
 H         7.6502275894        3.9168930102       -2.8920659739
 H         7.7554194608        4.6307387171       -4.4612649993
 H         7.0507562661        5.5786261876       -3.1156786091
 H         4.1636216664        0.5340375906       -3.3656085705
 H         2.8149875561        1.4887968951       -3.3452822317
 H         0.3456017917       -2.1147264481       -5.1781360778
 H         1.0489566283       -2.8170115318       -6.5240012965
 H         4.0616323914       -2.0131969866       -7.3892998281
 H         4.3120441325       -0.4557840598       -6.9932066399
 H         2.6972201936       -0.8373815263       -7.4011491551
 H         4.4267170259       -1.7992086806       -3.7466850375
 H         5.0968790555       -2.5396258365       -5.1227016723
 H         5.3273233334       -0.7719273078       -4.7876340289
 H         0.8946391758       -4.5590375244       -4.0340923051
 H         1.1568452867       -5.2102908328       -5.5857562684
 H        -3.2123456870       -3.4091718142       -4.2191455448
 H        -4.0737957433       -4.7873773092       -4.2659457318
 H        -2.1062030220       -7.1074904355       -6.4658310758
 H        -2.9534270328       -5.6057275303       -6.2754012650
 H        -3.3731533018       -6.9406858103       -5.3231275411
 H        -0.2691424590       -6.9092020498       -3.2151878553
 H        -1.3309159296       -7.8491405411       -4.3234499754
 H         0.2202755281       -7.2374258166       -4.8275165399
 H        -5.0813191192       -4.3349612779       -2.2842727975
 H        -3.6142966165       -4.3341312759       -1.3903341040
 H        -3.8519336335        0.2212616231       -1.8878484277
 H        -4.9315402687        1.2409549147       -0.9867908990
 H        -3.2166432969        1.0068432508       -0.3431570438
 H        -6.4484013463       -1.5521894896       -2.7880720069
 H        -6.3630360365       -0.1381235394       -1.8712401039
 H        -7.2787473277       -1.6601635877       -1.1966819445
 H        -6.0244103482       -3.7335204907       -0.5586504122
 H        -4.8164011966       -3.2217660380        0.5492265038
 H        -6.3588867839       -2.5975276827        0.6401118909
 Na       -2.5160019819        0.3791987051        1.9096209822
