155

 C        -2.9508820393        4.6559315467        2.6280005368
 C        -3.5318771898        3.2220973805        2.4998178618
 C        -4.7093958082        2.6915182388        3.3709325997
 C        -4.1622480785        1.6382413413        4.4710329865
 C        -4.4044473198        2.0529267047        5.9551110783
 C        -5.4807524168        3.9028986293        3.9792383976
 C        -5.7758870310        1.9027364160        2.5590872564
 O        -3.2380444912        2.5757612877        1.4828153685
 O        -3.6497604543        0.5723643762        4.1244961302
 C        -3.8748230040        0.9140358787        6.8652600552
 C        -2.3203789689        1.1379418490        6.8473211380
 C        -1.2775811701        0.2442361524        7.6231456318
 C        -0.6022603006       -0.6693609677        6.5732742500
 C         0.6609028726       -0.1817665414        5.7446320753
 O        -1.8498889483        2.0832468847        6.2728913834
 O        -1.1092548980       -1.6927068014        6.2186876694
 C        -0.1734340010        1.1806357155        8.3104662123
 C        -2.0396488036       -0.6666590483        8.5833031819
 C         1.0390926228       -1.1862246321        4.6257036251
 C        -0.0665874510       -1.2561203790        3.5269726448
 C         0.1733404865       -2.1832254538        2.2876694738
 C         0.1865236244       -1.2156592614        1.0368798327
 C         1.4215327912       -1.0332414252        0.0249571589
 C         1.5274677248       -3.0000334967        2.3698631092
 C        -1.0645131321       -3.0928763117        2.2123864520
 O        -1.1815794055       -0.7445128541        3.6593614086
 O        -0.7440329228       -0.4762682985        0.9683329744
 C         1.8211297796        0.3944886362       -0.0032899724
 C         2.1077567982        1.1687786042        1.2304077917
 C         2.2140485840        2.8428475911        1.1311913695
 C         3.4983606101        3.0506772424        0.1667000903
 C         3.8010845516        4.4797284768       -0.2664304261
 O         2.4761479172        0.6483604031        2.2258686857
 O         4.1435980050        2.0950984206       -0.2382010562
 C         1.0066780455        3.6487251945        0.5610000599
 C         2.7513072464        3.4104372428        2.4983133759
 C         5.0745231112        4.4414166173       -1.2238448343
 C         4.6930750292        4.5150778556       -2.7018896349
 C         5.6908584443        4.1619357736       -3.8127208092
 C         5.4631035815        2.5659972063       -4.2046644171
 C         4.0783193994        2.1706965001       -4.6302171054
 C         5.2975854318        5.0709798820       -4.9703917779
 C         7.1712597713        4.3901589924       -3.5519735484
 O         3.5060097603        4.6591966543       -3.0061155628
 O         6.4350763793        1.8546251738       -4.2671297772
 C         3.3750506563        1.2416958116       -3.7048395040
 C         2.6249266901        0.1168401132       -4.5704426744
 C         3.4275517400       -1.0710077571       -5.0349522654
 C         2.4152454888       -2.3170695415       -4.6387897416
 C         1.0736407546       -2.4332031241       -5.3260907466
 O         1.4325184570        0.2495057849       -4.7776056204
 O         2.6656957040       -2.9589130163       -3.6386196574
 C         3.6904626730       -0.8497039230       -6.5226090985
 C         4.7047518517       -1.3932762925       -4.2630967155
 C         0.7081124795       -3.9391535751       -5.0625128581
 C        -0.7050300553       -4.2175389601       -5.4571347794
 C        -1.4264786772       -5.5024490287       -4.8298911213
 C        -2.1226661726       -4.9695105713       -3.5074637792
 C        -3.6594497099       -4.7198781541       -3.4070370356
 C        -2.5361980786       -5.9804762201       -5.8386043370
 C        -0.3477702314       -6.5862479398       -4.4176130626
 O        -1.1741152839       -3.6000493059       -6.3568649649
 O        -1.4860039813       -4.8373438899       -2.4239886735
 C        -3.9467822592       -4.2431762095       -2.0546588572
 C        -4.4475790516       -2.8174549707       -2.0160992936
 C        -5.2361891507       -2.2413444038       -0.7623086383
 C        -4.3905523474       -1.1747937346       -0.0727126365
 C        -4.1824754338        0.1705942945       -0.7443431050
 O        -4.2556724800       -2.0252972451       -2.9318949469
 O        -3.9307281777       -1.3881869964        1.0046837367
 C        -6.5899693279       -1.6261471913       -1.3498441243
 C        -5.6256877029       -3.2631420078        0.2972259091
 H        -2.4804746711        4.7723666345        3.5623303486
 H        -2.2295325693        4.7009164010        1.8109212581
 H        -3.7553584076        5.3457620692        2.5374433406
 H        -3.7218429807        2.9727495369        5.9248957867
 H        -5.5245283777        2.3041441472        6.0983869835
 H        -4.8951282280        4.7583551169        4.3666953144
 H        -6.0791753362        3.6535730299        4.8156914296
 H        -6.1716270056        4.2740086189        3.2549529736
 H        -6.6255582058        1.7076074603        3.2648978248
 H        -6.1312207870        2.3303295720        1.6582035424
 H        -5.4187034424        0.9515423333        2.2371965688
 H        -4.2664856871        0.8935184323        7.8628931593
 H        -3.9246980501       -0.1185912733        6.3917333782
 H         0.5345030107        0.7723975636        5.3485700845
 H         1.5528957079       -0.1538417572        6.4170296419
 H        -0.2273893473        2.1612878667        7.7514865528
 H         0.7867349235        0.7791173109        8.5039065781
 H        -0.5555935186        1.4689360232        9.3061874561
 H        -2.8486281716       -1.2521297522        8.1691103067
 H        -1.4269608509       -1.5030373662        9.0250049586
 H        -2.4605878016       -0.2062531057        9.5086078393
 H         1.1581685922       -2.2306601284        4.9659040729
 H         2.0041654041       -0.9701346279        4.1986170866
 H         2.2425933899       -1.7537774900        0.1125080197
 H         0.8618932620       -1.2626358350       -0.9475671531
 H         1.3771813414       -3.6818584185        1.6117966584
 H         1.7600618904       -3.5316040437        3.3057031665
 H         2.3781318767       -2.4139020883        2.0146451105
 H        -1.0490500482       -3.7708205746        1.3801528786
 H        -1.2349352626       -3.6922079717        3.0625244177
 H        -2.0769540334       -2.5715469823        2.1849517697
 H         2.7948495951        0.3692824880       -0.5137856831
 H         1.0825427994        0.7756785715       -0.6875628548
 H         2.9622203829        4.9316824007       -0.8012427462
 H         4.1081573702        5.0845510189        0.6345348522
 H         0.7980124236        3.1667318030       -0.4242572065
 H         1.2179085099        4.6791282115        0.5010174105
 H         0.1376314195        3.5202880198        1.1826600796
 H         3.1543355115        4.4122376551        2.2160827043
 H         1.8450071105        3.6966971670        3.0324655803
 H         3.4642427869        2.7981771614        3.0384647501
 H         5.4876040999        3.4102823781       -1.1595536285
 H         5.8535585493        5.0990249445       -0.8733760672
 H         3.4595542134        3.0049677555       -4.8606113191
 H         4.1364070135        1.6984669009       -5.5926365550
 H         4.9502431320        5.9350822932       -4.5303651726
 H         4.4797504989        4.7104656379       -5.4806986262
 H         6.1151288822        5.1231166439       -5.7381912014
 H         7.6544284268        3.7951301036       -2.7655563793
 H         7.6939770032        4.3415623295       -4.5103690617
 H         7.5011620618        5.3496429992       -3.1394199786
 H         4.0241139131        0.7936022156       -2.8185403830
 H         2.5567588533        1.8364424855       -3.1938356852
 H         0.3499175646       -1.9234284919       -4.8409576319
 H         1.1749925911       -2.2671102688       -6.3569125335
 H         4.4268478798       -1.5124639935       -6.7934459538
 H         3.9338839180        0.1385695049       -6.7264828643
 H         2.8350743511       -1.1215255779       -7.1420142037
 H         4.4269416446       -1.7793378023       -3.2474818805
 H         5.3330792805       -2.0959835004       -4.7281166597
 H         5.2764373272       -0.4672664401       -4.0980789940
 H         0.7054002731       -4.1246624898       -3.9715388571
 H         1.4403768681       -4.5512950709       -5.4900433757
 H        -3.9182082402       -3.9449061807       -4.1232927269
 H        -4.1396760794       -5.6950636714       -3.6309591884
 H        -2.1626860018       -6.3068834484       -6.7936360041
 H        -3.2832283432       -5.2445886419       -6.0712241123
 H        -3.0360997874       -6.7429195766       -5.3731548720
 H         0.1057169435       -6.1767732183       -3.5138655019
 H        -0.7919372540       -7.5162212447       -4.0545267402
 H         0.4058964040       -6.7769374152       -5.1848253711
 H        -4.7459934202       -4.9202828075       -1.7058247926
 H        -3.2035291822       -4.4589643974       -1.2904499051
 H        -4.1938861432        0.1977733449       -1.8389757315
 H        -5.1679362267        0.6432045337       -0.3114203780
 H        -3.3138189121        0.6792110413       -0.4012839153
 H        -7.3657720693       -2.4577994092       -1.1629254053
 H        -6.4527478650       -1.2166612977       -2.3306944790
 H        -6.9330255069       -0.8673831173       -0.6949735261
 H        -5.9898945511       -4.1668593793       -0.0372848626
 H        -4.6998039650       -3.5585401976        0.8366518404
 H        -6.2470198519       -2.8244026321        0.9965918804
 Na       -2.7504254398        0.2126204234        1.9631570025
