155

 C        -2.3940411330        4.0813572421        2.0497420276
 C        -2.9745907829        2.6826348081        2.0099809489
 C        -4.4208272873        2.4570399796        2.5408331388
 C        -4.2421860250        1.5013873119        3.7799962334
 C        -4.2661610282        2.2196956311        5.2189002950
 C        -5.1305130219        3.7785981592        2.8150107904
 C        -5.1498258785        1.7106799137        1.4797633913
 O        -2.2262244232        1.7909873965        1.7281407421
 O        -3.9839641851        0.3037372539        3.5979385869
 C        -3.6979873299        1.3003366394        6.3254264921
 C        -2.2649007173        1.7976025100        6.8011265107
 C        -1.3285655231        0.8122186269        7.6054539482
 C        -0.9018124024       -0.5084831341        6.6715495766
 C        -0.5516685472       -0.1700535951        5.2386621977
 O        -1.8653075717        2.8822842366        6.4747729129
 O        -0.7296157250       -1.6026001344        7.1504556980
 C        -0.0163084321        1.4989956604        7.9264764585
 C        -2.1350437744        0.4696487189        8.9396921297
 C         0.2934938736       -1.2193452758        4.5562048876
 C        -0.4073137802       -1.7775023752        3.2373395001
 C         0.4304510102       -2.4918544309        2.0841981439
 C         0.3308654768       -1.3981543003        0.7635668093
 C         1.4855373185       -1.0470434958       -0.1092516212
 C         1.8892213975       -2.8184523070        2.4274844443
 C        -0.2437172260       -3.7656134662        1.5650414225
 O        -1.6048424171       -1.8685780562        3.1693300735
 O        -0.8141887220       -1.0310524433        0.5318274797
 C         1.5823294910        0.4374809216       -0.3246340912
 C         1.8910724914        1.2498575072        0.9616210426
 C         2.2857073987        2.7634302226        0.9609739920
 C         3.5767701349        3.0034592068        0.2097361832
 C         4.1181041591        4.4154534469        0.2133631292
 O         1.8292393965        0.7306892115        2.0255597089
 O         4.1979604542        2.1244291813       -0.2958311325
 C         0.9915003947        3.5189805276        0.4184784393
 C         2.4596273939        3.2451251680        2.5231632663
 C         5.3046161822        4.7634339699       -0.7272663163
 C         4.7777315372        4.9297728472       -2.1556473561
 C         5.8092435206        4.9025474081       -3.3767998777
 C         5.7376470121        3.3511960054       -3.8498581446
 C         4.4734752076        2.6957268673       -4.3977912333
 C         5.1505696893        5.7940581700       -4.5409064822
 C         7.2549760189        5.3607818230       -3.2313852497
 O         3.5660466940        4.8296994550       -2.3490669289
 O         6.7034713851        2.6404497554       -3.8504072240
 C         3.6352431685        2.0051207924       -3.2518532755
 C         2.7426484229        0.9710042288       -3.9100431701
 C         3.3884498522       -0.4789346039       -4.4504863821
 C         2.4574125647       -1.6723480005       -3.8660400092
 C         1.4539599803       -2.3041936205       -4.8277650974
 O         1.5801637969        1.1576398432       -4.0286199602
 O         2.6660981361       -2.1599320978       -2.7985139128
 C         3.4579543397       -0.5016408158       -6.0516303738
 C         4.8013234550       -0.6316525256       -3.8472414013
 C         0.6108264057       -3.3942295967       -4.2007786504
 C        -0.3541568393       -3.9422003890       -5.2553092922
 C        -1.1985486128       -5.2074030457       -4.8105452518
 C        -2.0449204948       -4.7070457829       -3.5921594121
 C        -3.5090007592       -4.9614761318       -3.4671027342
 C        -2.1103766951       -5.4436978101       -6.0669728208
 C        -0.2689937997       -6.4412762096       -4.4980125142
 O        -0.5077182782       -3.4151050454       -6.3188483049
 O        -1.4725204857       -4.2113331165       -2.5793274615
 C        -4.1195348313       -4.7244666427       -2.0458272070
 C        -5.4102698891       -3.9065179251       -2.0472560192
 C        -5.8419389790       -3.3412450245       -0.6695388964
 C        -4.6295885611       -2.3419765068       -0.2472362514
 C        -4.3642305988       -1.2706541311       -1.2906778796
 O        -6.0941290278       -3.8448695112       -3.0521120720
 O        -4.2017845182       -2.2812600497        0.8463790709
 C        -7.2656483649       -2.6288323238       -0.8274666512
 C        -5.9500218790       -4.5626356140        0.3297906347
 H        -2.6054071065        4.7152271362        2.8947949113
 H        -1.2967614982        4.0089311263        1.9472715817
 H        -2.6631990364        4.4965298174        1.0716820635
 H        -3.6929906642        3.1496665222        5.0457577205
 H        -5.3849327511        2.5137407613        5.2464120412
 H        -4.5712851129        4.3536499821        3.6120600394
 H        -6.1537625491        3.6444806045        3.2148292622
 H        -5.2007137612        4.3518684639        1.8965074321
 H        -6.1870526590        1.4305041527        1.7981163137
 H        -5.1891615429        2.3024801700        0.5812315826
 H        -4.6665772576        0.8150406086        1.1134166070
 H        -4.2442515600        1.3180277162        7.2194172648
 H        -3.6020625082        0.2133137528        6.1519570539
 H        -1.5670460508       -0.0577183502        4.7679126175
 H        -0.0427964632        0.7950313589        5.1745506534
 H         0.7855161214        1.3736342516        7.1889553636
 H         0.2162775768        1.2474063837        8.9101510092
 H        -0.1461372850        2.5218624505        7.8431964510
 H        -3.1196089956        0.0980393585        8.7183678674
 H        -1.5992623781       -0.2983762729        9.4953248170
 H        -2.1294547684        1.3724411249        9.5300310250
 H         0.2302595430       -2.0488194296        5.2508624419
 H         1.3602838391       -0.9987111687        4.4274148634
 H         2.3898734137       -1.5322387720        0.2913760693
 H         1.4012816103       -1.5913452131       -1.1102011130
 H         2.3933128063       -3.5739659179        1.9345545165
 H         1.8750700348       -3.0302862574        3.5512627975
 H         2.5547024106       -1.9517120107        2.2987654070
 H         0.3257197801       -4.1676768470        0.7673521975
 H        -0.2544632437       -4.5352670089        2.2768513214
 H        -1.3191964792       -3.8357780948        1.1232126767
 H         2.2757207510        0.7807949244       -1.1447680006
 H         0.6175821789        0.8307056209       -0.6029620791
 H         3.2880495677        5.0935861413       -0.0698619483
 H         4.3026508915        4.7289612029        1.2381584462
 H         0.9913258808        3.5310448313       -0.7220289638
 H         1.0198821598        4.5927841862        0.6926786739
 H         0.0738737322        3.1165428146        0.8407079812
 H         2.6580874151        4.3697901934        2.5254767491
 H         1.4811985972        3.0198485873        2.9762369146
 H         3.2699742349        2.7385635948        3.0005500898
 H         6.0966821251        4.0245671221       -0.6700971202
 H         5.9103335489        5.5820772761       -0.3252109244
 H         3.8415773633        3.4297248758       -4.8588299026
 H         4.8184227911        1.9220782700       -5.0162565505
 H         5.3185714371        6.8052588165       -4.2713949687
 H         4.1178280891        5.5439591178       -4.6065449951
 H         5.5576218463        5.4143050541       -5.5583047184
 H         7.7184150909        4.9468842481       -2.3080832194
 H         7.8675120202        5.0980835902       -4.1037453444
 H         7.4804715296        6.3757064235       -2.9804980110
 H         4.4640065310        1.7255662587       -2.4537085711
 H         2.9751354276        2.7585736201       -2.7396022386
 H         0.9353849769       -1.5394566330       -5.2792994799
 H         1.9414028534       -2.6636308501       -5.7410851680
 H         3.8309656674       -1.5098711485       -6.2035543395
 H         4.0448148930        0.2935927010       -6.5417111895
 H         2.4035198323       -0.3892374535       -6.4665589791
 H         4.9201341509       -0.6398302678       -2.7568465277
 H         5.1887749380       -1.5832312299       -4.1910681114
 H         5.3966990232        0.1698437460       -4.2798099214
 H         0.0729877811       -3.1035422846       -3.3459845777
 H         1.1916377983       -4.2330679203       -3.8737046949
 H        -4.1033538554       -4.5154143438       -4.2041354342
 H        -3.7731437486       -5.9945927426       -3.6546789125
 H        -1.3819805121       -5.7665329490       -6.8597958893
 H        -2.6735515357       -4.6089130883       -6.5342717586
 H        -2.8158699752       -6.2234912952       -5.8268108661
 H         0.5873378122       -6.1921538281       -3.8417986461
 H        -0.8948177951       -7.3162099412       -4.1687625365
 H         0.1611822719       -6.7042981764       -5.4616721465
 H        -4.4101606859       -5.6933426565       -1.6296888058
 H        -3.4673962644       -4.1745535720       -1.3930147251
 H        -5.0754134119       -0.4732354529       -1.1887756085
 H        -3.3271349028       -0.8307221514       -1.4460844637
 H        -4.5990524396       -1.7583275402       -2.1695673654
 H        -7.9354570605       -3.2675723939       -1.4201299088
 H        -7.2788933725       -1.6373018016       -1.3649759329
 H        -7.8277514283       -2.5997878972        0.1328503476
 H        -6.6743484351       -5.2938978999        0.1105387400
 H        -4.9603551444       -5.0680214882        0.3031675919
 H        -6.0223901715       -4.2111309054        1.3463347566
 Na       -2.9074372126       -0.5871895636        1.6552686025
