155

 C        -2.5350797465        3.7019907756        1.7131306036
 C        -3.3293631594        2.3894221784        1.4960732157
 C        -4.6796771231        2.2514197180        2.3293701001
 C        -4.2435967935        1.2675364087        3.6267917056
 C        -4.5582708731        1.6013308661        5.1637903276
 C        -5.3715776838        3.5354870369        2.7756156485
 C        -5.5763900612        1.3107797519        1.4750422669
 O        -3.0504552463        1.5303959612        0.6975423891
 O        -3.6626818027        0.1874551725        3.4799208102
 C        -3.7124894595        1.0658034348        6.2263452922
 C        -2.3014093125        1.5876293015        6.3320514981
 C        -1.3115012357        1.0782303400        7.4489993317
 C        -0.6381211237       -0.1701951759        6.7230401193
 C        -0.7472678468       -0.4488815005        5.1912857011
 O        -1.8747137479        2.3050272102        5.4516094886
 O        -0.0556344425       -1.0402405341        7.3423480234
 C        -0.2748741933        2.1814647204        7.7548974442
 C        -2.1603345649        0.6074444171        8.6828266582
 C         0.2174272295       -1.4080547298        4.5687882033
 C        -0.4593570740       -1.8643169734        3.2559902314
 C         0.3846326153       -2.4333678462        2.1596630477
 C         0.4779420336       -1.3355153066        1.0367590429
 C         1.6710462921       -1.1003457228        0.1214868528
 C         1.8411381880       -2.9457820067        2.6634718857
 C        -0.3032308653       -3.5260046471        1.2987582066
 O        -1.6816603760       -1.9320153214        3.1850506666
 O        -0.5651088455       -0.7468131113        0.7441811921
 C         1.6963359185        0.3695335396       -0.4218440537
 C         2.0585154713        1.3086637824        0.8979876212
 C         2.3684352440        2.7091040550        0.7093826933
 C         3.9205672713        2.8421802815        0.3578346456
 C         4.9115917404        4.1249514471        0.6836659036
 O         1.9737460642        0.7742361093        1.9925138110
 O         4.4356979454        1.8488219990       -0.0945517810
 C         1.5861517697        3.4204156795       -0.4754389053
 C         1.9909818196        3.3798169691        2.0870153527
 C         5.7781694623        4.4074434405       -0.5217054887
 C         4.9821908970        5.0726106169       -1.6205155003
 C         5.5286933156        5.2390114474       -3.0765827005
 C         5.9465638164        3.8346774730       -3.5680485636
 C         4.8825662343        3.0446031216       -4.2594192605
 C         4.3871118594        5.9819088439       -3.9585161654
 C         6.8479959356        6.0191163046       -3.2187004890
 O         3.8471662809        5.4569252880       -1.3317498746
 O         7.0047244637        3.3670896625       -3.2296053173
 C         4.0149984969        2.2944708974       -3.1678843929
 C         3.0095906182        1.1305491840       -3.7034329209
 C         3.5795666804       -0.3140654543       -4.1524575027
 C         2.3812194968       -1.3296392283       -3.7841536741
 C         1.3739999804       -1.7981601640       -4.8698670261
 O         1.8076466599        1.3214722636       -3.9666087127
 O         2.4432116083       -1.8856582617       -2.6959137036
 C         3.9978530509       -0.2540169742       -5.7102357456
 C         4.8614079531       -0.7332753540       -3.3576729267
 C         0.8649637482       -3.2113111194       -4.6143641630
 C        -0.5748061741       -3.6489856617       -5.1442148345
 C        -1.0767728387       -5.0355997441       -4.6036543767
 C        -1.9714997340       -4.6133756458       -3.4609326710
 C        -3.4534904104       -5.0627185878       -3.3852555381
 C        -1.8577435290       -5.7999224742       -5.7167790440
 C        -0.1086040356       -6.0687344454       -4.0618700207
 O        -1.2597314095       -3.0220849159       -5.9252107917
 O        -1.4786802647       -3.9936332159       -2.5444350799
 C        -4.1092554189       -5.1164923425       -2.0221154135
 C        -5.4612752582       -4.5495356031       -2.1491416403
 C        -5.9701059625       -3.7717660118       -0.7811103897
 C        -5.1665920860       -2.4474784019       -0.6401633836
 C        -4.9487321126       -1.6838376955       -1.8798883685
 O        -6.2663137815       -4.6763156890       -3.0608627212
 O        -4.6542107430       -2.2144408973        0.4332967708
 C        -7.4437045753       -3.2564225346       -0.9142440627
 C        -5.8677916631       -4.7713497865        0.4448241442
 H        -2.2289970648        3.9516842829        2.7269198040
 H        -1.6818761848        3.6799691881        1.0218369348
 H        -3.2230167029        4.4799217310        1.4235091405
 H        -4.8064598408        2.6214950137        5.1820086646
 H        -5.5428120464        1.1430410234        5.3139355509
 H        -4.8216516593        4.2150258205        3.4471509598
 H        -6.2810611270        3.1888090985        3.1451485218
 H        -5.6057903294        4.0373660296        1.8541945983
 H        -6.4762320934        0.9620224854        2.0448734207
 H        -6.0033293913        1.8882464977        0.6621690207
 H        -5.0671257151        0.4296340196        1.1256929602
 H        -4.2482600192        1.1281748209        7.1192194114
 H        -3.5437611577        0.0056085287        6.0086211411
 H        -1.6829695186       -1.0324703125        5.1296487588
 H        -0.7639882939        0.4633720576        4.5103505132
 H        -0.3598409038        2.7236067942        8.6715347757
 H        -0.4051285329        3.0305971392        7.0258317019
 H         0.7330007550        1.7781375330        7.7336998635
 H        -2.9279237274       -0.0934749362        8.3672388234
 H        -1.4549765427        0.2111645701        9.4571867008
 H        -2.6667429257        1.5675922916        8.9902008817
 H         0.3096375719       -2.3325668588        5.1579391728
 H         1.1782006578       -0.9812511701        4.2569593208
 H         2.5700938565       -1.3947558147        0.6664754411
 H         1.5950103976       -1.8187301822       -0.7538947185
 H         2.4116363362       -3.4389279821        1.8822039107
 H         1.7186294137       -3.6917914848        3.4588077442
 H         2.4617380640       -2.1262542831        3.0795078439
 H         0.3343101640       -4.0722390418        0.5281595315
 H        -0.6619742043       -4.3907954494        1.8938909562
 H        -1.1417458346       -3.2659105252        0.7811956767
 H         2.4287559848        0.5926398370       -1.1658186767
 H         0.7638482167        0.6930277151       -0.7553216521
 H         4.3439013933        5.0337056977        0.8186540009
 H         5.5483944417        3.9754150646        1.5569568567
 H         1.7408383638        2.8514752322       -1.4273805737
 H         2.0255361437        4.3720808622       -0.5617847522
 H         0.4990520854        3.4836150393       -0.4551291505
 H         2.1113304304        4.4452803751        1.9223287419
 H         1.0213088142        3.1299329054        2.4502024216
 H         2.6740182744        3.0266105746        2.8130742433
 H         6.1627123655        3.4356262446       -0.8762198356
 H         6.6596931951        4.9599252177       -0.1570463519
 H         4.2456455556        3.7126595656       -4.8495849408
 H         5.2627257595        2.3368315175       -4.9605035710
 H         4.0660331928        6.9779362804       -3.5072993970
 H         3.4604748444        5.2693221493       -4.0379334985
 H         4.7465524992        6.3523003084       -4.8869502465
 H         7.5623339968        5.6442371602       -2.5681965435
 H         7.4079670417        5.9342522630       -4.1456986412
 H         6.7062204929        7.1343174453       -3.0770811234
 H         4.6542603006        1.8631070130       -2.3830895305
 H         3.3055603096        3.1733094395       -2.8181306798
 H         0.4998851277       -1.1307022548       -4.8146769087
 H         1.7861217979       -1.5035927724       -5.8558858544
 H         3.9840597856       -1.3291699956       -5.9935735712
 H         5.0092111716        0.1720129976       -5.9887220310
 H         3.2730407362        0.1686810890       -6.3216929524
 H         5.0500631742       -0.0167736567       -2.5030214961
 H         4.8698162468       -1.7195889507       -3.0283965027
 H         5.7555160621       -0.6467707104       -3.9766495533
 H         0.7815879736       -3.4321206511       -3.4388208570
 H         1.5765688263       -3.9665807874       -5.0303620375
 H        -3.9993513303       -4.4362563306       -4.0405188461
 H        -3.5891919825       -6.0664459326       -3.8717349078
 H        -1.1708789506       -6.4825467550       -6.2428139481
 H        -2.3786397014       -5.1804672160       -6.3714783441
 H        -2.5215795268       -6.5224264376       -5.2781631916
 H         0.3812544197       -6.6324663196       -4.8245607325
 H         0.7100723769       -5.6496020151       -3.4373152252
 H        -0.6632869282       -6.8275915040       -3.4542187951
 H        -3.9517909993       -6.1219467938       -1.5470817157
 H        -3.5773545002       -4.3786635181       -1.3810023434
 H        -3.9053958208       -1.2573642972       -1.8148048229
 H        -5.0690114864       -2.2405782600       -2.7437826696
 H        -5.5474174834       -0.7630967043       -2.0005045290
 H        -8.1574553065       -3.8781076589       -0.5186694835
 H        -7.7769870791       -3.0851811607       -1.9606019665
 H        -7.5993051776       -2.2628789253       -0.4990593171
 H        -6.5546688885       -5.6672114753        0.3801389918
 H        -4.8498866958       -5.0800744666        0.4621781115
 H        -6.0776322402       -4.2017365115        1.4189761181
 Na       -2.8388608166       -0.7109002203        1.3998144988
