155

 C        -3.8506491700        3.4960168953        1.9065181012
 C        -4.3201392532        2.0804085971        1.7283058454
 C        -5.5903210512        1.5568545948        2.3958528905
 C        -4.9306838160        0.8197117128        3.6911919417
 C        -5.2661313578        1.2322540632        5.1694639703
 C        -6.5412911656        2.7160706956        2.8554183621
 C        -6.4015016364        0.6125238901        1.5152359180
 O        -3.6132718306        1.2511719098        1.1060714102
 O        -4.2726879574       -0.1648464764        3.5353543135
 C        -4.0085891273        1.1233382366        6.0371057383
 C        -2.8560496550        1.8362488584        5.2966456885
 C        -1.3615975381        1.6593989377        5.8903689585
 C        -1.0026679691       -0.0264691853        5.8821806551
 C        -0.2428718572       -0.4097213044        4.6389568786
 O        -3.0522397789        2.5227078423        4.3110233072
 O        -1.3787006131       -0.6724898618        6.8365713980
 C        -0.5430155753        2.5841549339        5.0771886664
 C        -1.4147095613        2.0716934764        7.4354373407
 C        -0.2705931874       -1.9667750649        4.3973232501
 C        -0.7846902905       -2.4214290534        2.9960852853
 C         0.1629336997       -2.6116935599        1.7437017820
 C         0.1012944436       -1.2794459761        0.8254136488
 C         1.2223909513       -0.8457874826       -0.0979334443
 C         1.6695549900       -2.9161153239        2.2987684738
 C        -0.1398770466       -3.8630301091        0.7736131244
 O        -1.9795934993       -2.5460390920        2.8056171207
 O        -0.9635814731       -0.6704075874        0.9690358513
 C         1.5891790184        0.6255864322       -0.0235302136
 C         1.9027523680        1.0071748112        1.3789566281
 C         2.1534165518        2.5981896998        1.7355995056
 C         3.3275904497        3.0463541771        0.7627367036
 C         3.9173528526        4.4123519540        0.9548545024
 O         2.0301746536        0.2271422071        2.3006635810
 O         3.7937705348        2.4282622896       -0.2329062230
 C         0.9667438752        3.5054188934        1.5746273452
 C         2.7523206148        2.5770165541        3.2110289726
 C         5.1061508319        4.7003446268        0.0695806600
 C         4.5735013156        5.3053523330       -1.2194959241
 C         5.5418028736        5.7202895787       -2.3226113329
 C         5.9253040791        4.3506993509       -2.9463335332
 C         4.7084944115        3.4057360688       -3.2232770377
 C         4.6350532966        6.5264821529       -3.3144052634
 C         6.7547073712        6.6293380270       -1.8826818165
 O         3.3813060447        5.4051066913       -1.3456909563
 O         7.0598662561        4.0342909643       -3.0738016622
 C         4.8096600349        2.5691854213       -4.5097138820
 C         3.8259680397        1.4014385724       -4.5148072001
 C         4.3506252202       -0.0750391798       -4.1561185377
 C         3.2501372493       -0.9236100378       -3.6000297890
 C         2.0983902153       -1.5123799195       -4.4698697672
 O         2.7776987290        1.4238149793       -5.1450679699
 O         3.3207022606       -1.2898990287       -2.4358447368
 C         4.7536656670       -0.5068688060       -5.6669580117
 C         5.5754114487       -0.1408166045       -3.2305860543
 C         1.8387967063       -2.9614080448       -4.1471296811
 C         0.3075416410       -3.2238566413       -4.5050460430
 C        -0.2396472217       -4.6666163852       -4.6402998919
 C        -1.2832254269       -4.7761544300       -3.3015987896
 C        -2.7968785359       -4.8523130937       -3.5268782318
 C        -1.1113925084       -4.6037558109       -5.9089805224
 C         0.8556591729       -5.7039153576       -4.5931408773
 O        -0.3543055200       -2.2488754968       -4.7983991834
 O        -0.7348378693       -4.8004959412       -2.2347271442
 C        -3.5791763423       -5.4182648434       -2.3512412197
 C        -5.0098532298       -5.0412306899       -2.1745111042
 C        -5.5527583712       -4.5626676822       -0.7275495509
 C        -4.9859290021       -3.0867042851       -0.7042176793
 C        -5.4361696087       -2.0459754485       -1.6529432918
 O        -5.8737324287       -5.1898455032       -3.0167079302
 O        -4.1378637212       -2.7456380843        0.1389181133
 C        -7.1926747017       -4.5620762075       -0.7932660959
 C        -5.1125523824       -5.4617116040        0.4029847182
 H        -4.5100800018        4.0961240781        2.4934894827
 H        -2.7804431119        3.6959582444        2.1520394253
 H        -4.0400120507        4.0047331780        0.9279597320
 H        -5.5113296737        2.2969575125        5.2108522104
 H        -6.2223095601        0.7949963455        5.4827266800
 H        -5.9902508857        3.5233758895        3.4662382034
 H        -7.2435327885        2.3241896668        3.6159880678
 H        -7.1656569591        3.1956719681        2.1154344346
 H        -7.2338649093        0.2321563102        2.1442808750
 H        -6.8131048210        1.1512587499        0.6486497125
 H        -5.8220913510       -0.2165463756        1.2062829716
 H        -4.0656468554        1.4512093472        7.0339070930
 H        -3.7093297514        0.0553804364        6.0878641010
 H        -0.6853048713        0.1488828050        3.7406466802
 H         0.8067837958       -0.0429508763        4.8453369349
 H        -0.9819780699        3.5765266390        5.0023266412
 H        -0.2563643880        2.1303564643        4.0643137454
 H         0.4536125366        2.8134320333        5.6299576322
 H        -2.0653461161        1.4293236750        7.9798343780
 H        -0.4206354887        2.0858968312        7.9297590555
 H        -1.7008392800        3.0906411695        7.3384549878
 H        -1.0833428048       -2.2655985310        5.0947744629
 H         0.6631201442       -2.4397986892        4.6679951081
 H         2.1241522409       -1.4219520167        0.2432888143
 H         1.1193962037       -1.1189179560       -1.1672728240
 H         2.2849238299       -3.2595768743        1.5411423451
 H         1.7409640350       -3.7449348980        3.0065324762
 H         2.1756568433       -2.0761458538        2.7228845001
 H         0.6336006883       -3.9411533952       -0.0808591866
 H        -0.2084200074       -4.7909676638        1.3814838169
 H        -1.0487652107       -3.7024268435        0.2507154216
 H         2.4068288759        0.7730217691       -0.6692595623
 H         0.8573658828        1.3504966818       -0.3781726341
 H         3.1476740300        5.1216994588        0.6289679074
 H         4.1247630048        4.6207883170        2.0304106388
 H         0.7352495792        3.6822135387        0.4651194809
 H         0.9649987841        4.5441852383        2.0131422599
 H         0.0708506425        3.0636379746        1.9528126272
 H         2.9928726255        3.6273475066        3.4868897060
 H         2.1055477531        2.2242414644        3.9991204984
 H         3.6763875005        2.0512366817        3.2321077750
 H         5.7394822744        3.8369013187       -0.1970540349
 H         5.8562912724        5.4059591156        0.4937499931
 H         4.6756634946        2.7398005951       -2.3368277606
 H         3.7354714824        3.8921176466       -3.3267134798
 H         3.9434239620        7.1175858031       -2.6603435414
 H         3.9285820317        5.8257326975       -3.8012043965
 H         5.1518847575        7.0162733886       -4.1047402398
 H         7.5341567369        6.0252499987       -1.4904206298
 H         7.0413484528        7.0694497816       -2.8817192455
 H         6.3912673366        7.3970262430       -1.1645778649
 H         4.4136642833        3.1983135684       -5.2116288811
 H         5.8493492920        2.2498622764       -4.8396887968
 H         1.1508816007       -0.9282922168       -4.1892116096
 H         2.2807806062       -1.2725671889       -5.4748668364
 H         4.7673419780       -1.5984781444       -5.7532634559
 H         5.7954348620       -0.2219407158       -5.8854552835
 H         4.0885628392       -0.1093933540       -6.3994438680
 H         5.9772490366       -1.1315045029       -3.1992904335
 H         6.4417154533        0.4150269647       -3.6228575000
 H         5.2745678373        0.2573589226       -2.2470741031
 H         2.0949528543       -3.1295132559       -3.1071659597
 H         2.4808147845       -3.5891560178       -4.7563939308
 H        -3.1196109089       -3.8310228272       -3.6254043144
 H        -2.9938329917       -5.3311599733       -4.4619590122
 H        -0.4527931979       -4.4848609529       -6.8569012313
 H        -1.7110248895       -3.7111005714       -5.9685325326
 H        -1.7906730902       -5.4606352468       -6.0411094069
 H         1.3920416851       -5.6816477005       -5.5639787827
 H         1.5346604818       -5.6679680663       -3.7283219979
 H         0.4616273615       -6.6892162624       -4.6576290038
 H        -3.2754961706       -6.4911809910       -2.2623173700
 H        -2.9936872561       -4.9651232908       -1.4952079273
 H        -4.4779695448       -1.4574138027       -1.9622578763
 H        -6.0431814157       -2.3725398048       -2.5104729325
 H        -6.0132484481       -1.2331845004       -1.1226636608
 H        -7.4405384385       -5.6062596676       -0.9509980815
 H        -7.5452617846       -3.9938860770       -1.6204573320
 H        -7.6125902381       -4.3622285065        0.1499426119
 H        -5.6421343486       -6.3776792975        0.5075690676
 H        -4.1141184774       -5.6632820347        0.2585072341
 H        -5.0928391168       -4.9106337662        1.3665882210
 Na       -3.2093932338       -1.0551350273        1.5722207193
