155

 C        -4.4576777205        3.1585409801        0.6918977157
 C        -4.9120926229        1.7194453347        1.1605351325
 C        -5.8429160399        1.4949268512        2.3537345495
 C        -5.0323792522        0.6658146766        3.6181407056
 C        -5.3410512229        1.0997466327        5.1033060234
 C        -6.4724286339        2.7271001784        3.0122859987
 C        -6.8987954540        0.5620720627        1.8123249293
 O        -4.2969654506        0.8167739292        0.6198614631
 O        -4.3350571916       -0.3410170866        3.3288898221
 C        -4.2084472269        0.7961293632        6.0929048745
 C        -2.8993122040        1.7408000866        5.5820138121
 C        -1.5424090728        1.4336576581        6.3123761349
 C        -1.3185695631       -0.0548103256        5.8544685717
 C        -0.8649622238       -0.3149833866        4.3576918540
 O        -3.1091653524        2.5599843607        4.7154880227
 O        -1.7024088901       -0.9785292363        6.5406370138
 C        -0.4855464977        2.4154876136        5.6808554050
 C        -1.5618815308        1.6936130187        7.8262429891
 C        -0.3647943268       -1.7040708724        4.2187159672
 C        -0.7772406305       -2.3288991276        2.9637519333
 C         0.0844826013       -2.5169438404        1.6330444076
 C        -0.0230479707       -1.1036175715        0.8465976043
 C         1.1179783931       -0.8415665493       -0.1968109289
 C         1.5633970114       -2.6952490384        2.0116107098
 C        -0.5956917028       -3.6405917343        0.8101713333
 O        -1.9924991185       -2.5412828795        2.8277909057
 O        -1.0938799415       -0.5644209040        0.9266489545
 C         1.6702563694        0.5953259648       -0.0904235779
 C         1.7770995625        1.1455707148        1.4228877428
 C         2.4115076936        2.5822821375        1.7013188813
 C         3.5878044201        3.1106551959        0.7198734012
 C         4.1250421109        4.5148996875        1.1343998253
 O         1.4637745321        0.4245828131        2.3637705481
 O         3.9463396119        2.5128743423       -0.2660998022
 C         1.3435211990        3.6906588907        1.7865884584
 C         3.1152189166        2.3556610505        3.1450507191
 C         5.2402901700        4.9753946131        0.1092334383
 C         4.5699594640        5.6498672788       -1.0082856944
 C         5.3020597328        5.7655321689       -2.3867038030
 C         5.5999077433        4.3902949650       -3.1581217166
 C         4.3124641808        3.6077242034       -3.6582520161
 C         4.6057604311        6.7999391238       -3.2804339566
 C         6.6778241726        6.4237309774       -2.1035624106
 O         3.4010445599        6.0356898670       -0.9791718319
 O         6.6766652432        3.9686435132       -3.4397081547
 C         4.8312090365        2.3849578997       -4.4626910601
 C         3.9037313296        1.2257269681       -4.4626371753
 C         4.5246601799       -0.1427332542       -3.8844181481
 C         3.3006523185       -1.0769112008       -3.5212061918
 C         2.4265668774       -1.5070888517       -4.7412367742
 O         2.7484095908        1.2738838599       -4.8556366293
 O         3.0696409364       -1.4280297363       -2.3847472456
 C         5.4790546748       -0.6077717593       -5.0262435867
 C         5.4467043160        0.0423030810       -2.6551498622
 C         1.7736764695       -2.9293513501       -4.2628780736
 C         0.3194539014       -3.1145600083       -4.6828421289
 C        -0.0843041543       -4.6422058645       -4.7665239358
 C        -0.7761991742       -4.9468547340       -3.4059590903
 C        -2.2714207882       -5.0371045967       -3.4832894622
 C        -0.9360937159       -4.7398366850       -6.0258784166
 C         1.0560022267       -5.6093158100       -4.9302436221
 O        -0.4415478070       -2.2175005158       -4.8549766739
 O        -0.1571759664       -4.9696945567       -2.3785646185
 C        -3.0577874075       -4.9249712332       -2.0893951133
 C        -4.5447176209       -4.8462851793       -2.1982567445
 C        -5.2317406092       -4.4577753828       -0.7619280592
 C        -4.8105779905       -3.0436416361       -0.3781655523
 C        -5.3306603560       -1.8392723629       -1.0729068760
 O        -5.2100140836       -4.9646801727       -3.2103919207
 O        -3.7968657811       -3.0171633321        0.3741686124
 C        -6.8242994438       -4.5072852194       -0.9588691971
 C        -4.8824466682       -5.3503061380        0.4023413626
 H        -3.9637498044        3.6063606625        1.5775206682
 H        -3.7651033457        3.1492450341       -0.1616332931
 H        -5.1755318883        3.9323139627        0.3959704371
 H        -5.6716930515        2.1776208150        5.2785670778
 H        -6.1978656825        0.5871982591        5.5421813359
 H        -5.7938641527        3.2600871815        3.6773761838
 H        -7.2964155338        2.2829642427        3.6287050934
 H        -6.9774799867        3.5023030782        2.3817579189
 H        -7.4133291357        0.2274230586        2.6954762805
 H        -7.6617037651        1.0805774020        1.1760246740
 H        -6.4532224970       -0.2556152958        1.3165837350
 H        -4.5964596708        1.2603777408        7.1033332066
 H        -3.8320820446       -0.2841837677        6.1671957914
 H        -1.7223622854       -0.2519282936        3.7174341046
 H        -0.1261694993        0.4771687472        4.1274306477
 H        -1.0813639249        3.3710530203        5.7334770275
 H        -0.2395883566        2.2196705708        4.6156970000
 H         0.4238583722        2.5218487155        6.2394682454
 H        -2.6379740814        1.5480959245        8.0919808927
 H        -0.8841396732        0.9503768601        8.1869277791
 H        -1.2970371185        2.7115113110        8.1458764700
 H        -0.7125690311       -2.2989679545        5.0840980156
 H         0.7524580863       -1.6230152261        4.3014706898
 H         1.9481207811       -1.5058121525       -0.0543077117
 H         0.8137582631       -1.2143124529       -1.2174843029
 H         2.0679054138       -3.1439128129        1.2302484977
 H         1.6184252244       -3.3331848246        2.8969706933
 H         2.1964331848       -1.8830969317        2.2023472521
 H        -0.0297376814       -3.8244849793       -0.1874592069
 H        -0.5887425706       -4.5275844648        1.3813474801
 H        -1.6410958802       -3.4294747804        0.6817113349
 H         2.7527015946        0.6252821215       -0.2707897677
 H         1.0895260232        1.3203088303       -0.6519967077
 H         3.2608930658        5.1745074491        0.9445211903
 H         4.4109944021        4.5231686836        2.1702954275
 H         1.0852362350        4.2900606961        0.9476815605
 H         1.6622765104        4.3544365013        2.6074634770
 H         0.3515567708        3.3868307284        2.2187622860
 H         3.5833234388        3.2630251554        3.6474345469
 H         2.3690551892        1.9750827912        3.7831224169
 H         3.7555038569        1.5684767937        3.0359684945
 H         5.8297322488        4.1660480012       -0.3718084919
 H         5.8968520899        5.7209569624        0.5538058929
 H         3.5967129403        3.3258727929       -2.9214922050
 H         3.8670132919        4.3548417570       -4.3118898783
 H         4.7338405459        7.8207675555       -2.8864971396
 H         3.4942247912        6.4286738989       -3.5291446966
 H         5.1708934335        6.8172518918       -4.2221005974
 H         7.2725526987        5.6500348495       -1.4792854726
 H         7.1723294758        6.5431549284       -3.0388599715
 H         6.3963016958        7.2246254748       -1.4643253199
 H         5.2323363519        2.7390498556       -5.4782299014
 H         5.7320907027        2.1305792341       -4.0157762752
 H         1.6911291765       -0.7716127382       -4.8355946996
 H         3.1311255140       -1.6061009293       -5.5200813687
 H         5.7408470859       -1.6269726444       -4.9518121130
 H         6.2875466421        0.0724171062       -4.9832937564
 H         5.0829250827       -0.5586893527       -5.9915880991
 H         5.3518778455       -0.9021603550       -2.2111611981
 H         6.4976217743        0.3152443979       -2.8949066017
 H         5.1215470468        0.6508737022       -1.8718605199
 H         1.7161568672       -3.0530767422       -3.2354078313
 H         2.4243875198       -3.6816997929       -4.6219727230
 H        -2.6339190426       -4.2209177236       -4.0910976099
 H        -2.6866351147       -5.9334308045       -3.9473295565
 H        -0.2872583587       -4.5750389326       -6.8578232249
 H        -1.7507061468       -4.0172722562       -6.0777036827
 H        -1.3365573501       -5.7183957287       -6.2492049850
 H         1.8117079510       -5.3408511446       -5.6545143758
 H         1.6263951468       -5.5045526478       -4.0042018695
 H         0.6700757945       -6.6858208598       -5.0637907755
 H        -2.8361049576       -5.7943813646       -1.4081169290
 H        -2.7313255221       -4.0266320140       -1.5066727499
 H        -5.3427127493       -0.8887533883       -0.4557738930
 H        -4.6891402418       -1.4858560439       -1.9136632014
 H        -6.3228006961       -1.9636362304       -1.3255906223
 H        -7.2320949351       -5.4150172256       -1.1580927933
 H        -6.9250012044       -3.7821505540       -1.7497208265
 H        -7.2139595944       -3.9645270293       -0.0972870234
 H        -5.2987011566       -6.3269962126        0.2653019441
 H        -3.8151041370       -5.5421305002        0.4971509086
 H        -5.3112499943       -4.9959633601        1.3371996031
 Na       -3.2356229533       -1.1085800641        1.5367383545
