155

 C        -4.8362172699        2.9717266841        0.5804382617
 C        -4.9886895635        1.6677707470        1.1469485683
 C        -5.8097860649        1.4592176838        2.4291133412
 C        -5.0669269548        0.7306022037        3.6206154504
 C        -5.4845500866        1.0380200055        5.0975030213
 C        -6.4758150944        2.8251270777        2.7609837079
 C        -6.9459647901        0.4236111883        1.9831107589
 O        -4.4640522031        0.6671195144        0.6358932890
 O        -4.2991438204       -0.1549686897        3.4642309651
 C        -4.2618156905        0.7377396644        6.0037442077
 C        -2.9905449933        1.7103881790        5.5675481784
 C        -1.6207023837        1.4485989096        6.3971251347
 C        -1.3096660901       -0.0417760407        5.9572200093
 C        -0.9723193494       -0.2398793373        4.4556940522
 O        -3.1125815425        2.5230838261        4.6687186418
 O        -1.5961616073       -0.9541900115        6.7013664617
 C        -0.4975329752        2.4567530704        6.0392526436
 C        -1.8772063441        1.3889911007        7.9649275109
 C        -0.2977437419       -1.7032853358        4.1501330043
 C        -0.8578281951       -2.2569652567        2.8219381417
 C        -0.0085250452       -2.3365025402        1.5419751166
 C         0.0014548051       -0.9918727097        0.7253784752
 C         1.1451207288       -0.6553431485       -0.3035220219
 C         1.4218245387       -2.8726667462        1.9572937809
 C        -0.4520955508       -3.5726806294        0.7189659527
 O        -2.0274623169       -2.5267732825        2.8304421949
 O        -1.0727755177       -0.3745765824        0.6285906336
 C         1.5547161271        0.8154111281       -0.1614823865
 C         1.7934697289        1.1716403654        1.3499550174
 C         2.5453416856        2.4861915244        1.8408401502
 C         3.6494799839        3.0352023338        0.8358918863
 C         4.3546520029        4.3739516647        1.1840394902
 O         1.4835191896        0.4839565307        2.2946148654
 O         3.8174496226        2.4560674699       -0.2058036792
 C         1.2918695556        3.4544279110        1.8701386648
 C         3.1894157076        2.4407403621        3.2110899428
 C         5.2675212067        4.8046380268        0.0686344671
 C         4.6010878868        5.6438057610       -1.2081142753
 C         5.3161366550        5.9486968340       -2.5094850170
 C         5.5073239465        4.6436827268       -3.2787132136
 C         4.3907506258        3.9057114297       -4.0289306315
 C         4.4022853385        6.9752898110       -3.2381356115
 C         6.7502393525        6.5657170115       -2.2415798913
 O         3.5017008604        6.1354901071       -1.0804540427
 O         6.6294583752        4.1238958030       -3.0895431368
 C         4.8760831821        2.4541951173       -4.3472259969
 C         3.9339845531        1.2366389449       -4.3118886471
 C         4.4325272544       -0.1628353095       -3.7136254923
 C         3.2880105272       -1.0975338599       -3.3758183666
 C         2.4309944316       -1.6817588219       -4.5279168619
 O         2.7801193720        1.2802589092       -4.6937966941
 O         3.0766112955       -1.5188784499       -2.2365367314
 C         5.2256522469       -0.7218269697       -4.9657630011
 C         5.2799815645       -0.0807399626       -2.4139140493
 C         1.9315805534       -3.0358719692       -4.2616244058
 C         0.5430336005       -3.2544788812       -4.7852515283
 C         0.0577292067       -4.7680842678       -4.9502480682
 C        -0.6656262416       -5.0175289971       -3.5691113328
 C        -2.1873280966       -5.0674918769       -3.4235362362
 C        -0.9450499120       -4.8219438781       -6.1301671954
 C         1.1340387747       -5.7096813629       -5.0934943416
 O        -0.1356401234       -2.2486126979       -5.0129510241
 O         0.0057576758       -5.0150897336       -2.5510954956
 C        -2.8241476848       -4.6883178114       -2.0349629779
 C        -4.4392166555       -4.6957620125       -2.0816280963
 C        -5.2624680373       -4.4223645473       -0.7517153071
 C        -4.8121276322       -3.0664612142       -0.2320601217
 C        -5.3646769673       -1.8530980708       -1.0489217858
 O        -4.9148063970       -4.8443132518       -3.1662426050
 O        -3.9221232669       -3.0121071840        0.5498889482
 C        -6.8516089834       -4.5224341487       -0.9776161752
 C        -4.9170692205       -5.5976718616        0.2049710284
 H        -4.7156739724        3.7908833049        1.2829454482
 H        -4.0214166610        2.9849406093       -0.1088919941
 H        -5.6626721134        3.2228845723       -0.0678152803
 H        -5.8965074309        1.9891200839        5.2651484116
 H        -6.3057206443        0.3636122061        5.4101362171
 H        -5.7723245271        3.5886275384        3.0343599740
 H        -7.1693984549        2.7001046201        3.5517275329
 H        -7.0479706211        3.1782389983        1.9259280037
 H        -7.6198294905        0.2837607666        2.8326036027
 H        -7.4808187019        0.7987030558        1.1643079359
 H        -6.4239549092       -0.5610333261        1.7384711857
 H        -4.3354859465        0.8646927561        7.0252640962
 H        -3.8642683292       -0.1635392018        5.7215842294
 H        -1.8941213861       -0.2059329199        3.8637834042
 H        -0.3567026805        0.5739462929        4.2076730362
 H        -0.6603802770        3.5145424424        6.2357467823
 H        -0.4269455645        2.4434583097        4.9834117420
 H         0.3709545802        2.0305332745        6.5036976486
 H        -2.9439314710        1.3853078318        8.2005558236
 H        -1.2355840137        0.5542058476        8.3692203870
 H        -1.6289177150        2.3878045655        8.3973971892
 H        -0.4846802459       -2.4608986983        4.9081313236
 H         0.7379731136       -1.4588929812        4.1670435191
 H         2.0408623830       -1.2962171051       -0.2304392482
 H         0.8391503082       -0.8287137280       -1.3073034421
 H         2.0199158275       -3.3030628226        1.0527390922
 H         1.3415091224       -3.5411575169        2.8051462010
 H         2.1496181685       -2.1129972559        2.3648575118
 H         0.1245281280       -3.7651510463       -0.1021236947
 H        -0.4920843435       -4.4448215489        1.4361601844
 H        -1.5517910360       -3.4200446501        0.5323252608
 H         2.5439978698        1.0331793837       -0.5887133763
 H         0.7434214014        1.5576318404       -0.4248521030
 H         3.6616775709        5.1799182325        1.4007451243
 H         4.9563709098        4.1297554695        2.0864091999
 H         0.9730594819        3.7807449915        0.8818448502
 H         1.3487191206        4.3562202886        2.4445472312
 H         0.4137666441        2.8934678033        2.1944732667
 H         3.4048868538        3.4380681297        3.3661677333
 H         2.3592109154        2.2661748352        3.9345387504
 H         4.0809595367        1.7290972930        3.4219191596
 H         5.6978224934        3.9180644337       -0.3472688684
 H         6.0190174009        5.4552231440        0.5353537584
 H         3.4711018132        3.9507146963       -3.3667817121
 H         4.0973558916        4.4631346079       -4.9351806056
 H         4.1415079959        7.7490218209       -2.5693477390
 H         3.6132650566        6.4110748669       -3.5377746739
 H         4.8363498247        7.4665801711       -4.0999368569
 H         7.3996257598        5.7513124955       -2.1887337350
 H         6.9247790495        7.1351292370       -3.1715747472
 H         6.7170970714        7.1098552755       -1.2861522966
 H         5.1067514389        2.5623762918       -5.3816611462
 H         5.9291104378        2.3025865326       -3.9512268679
 H         1.4742168744       -1.0472905348       -4.5128947997
 H         3.0858805649       -1.5993637562       -5.4682760857
 H         5.5360491561       -1.7376257408       -4.6667475000
 H         6.0661477062       -0.1432192452       -5.3557934481
 H         4.5453532268       -0.8201515690       -5.9003075009
 H         5.7823722366       -1.0487391550       -2.1950453524
 H         5.9050195005        0.7495583093       -2.4466150019
 H         4.6359664885        0.0252439145       -1.5225776065
 H         1.8649244675       -3.1413059292       -3.1184980294
 H         2.6316955025       -3.7928009123       -4.6643142620
 H        -2.7966912631       -4.5485242872       -4.2077916615
 H        -2.5210357206       -6.1160638553       -3.5245958490
 H        -0.4700469342       -4.3916431049       -7.0042759384
 H        -1.8900835181       -4.2872232757       -5.9932755969
 H        -1.1490096401       -5.8491956802       -6.3817391891
 H         1.8428857839       -5.3077004395       -5.8519464193
 H         1.7786190327       -5.7684435112       -4.2089969554
 H         0.7099241398       -6.6418420138       -5.3195765874
 H        -2.3720269841       -5.2424949303       -1.2573449962
 H        -2.5895401497       -3.6643995554       -1.8793624997
 H        -5.6712711776       -1.0007147439       -0.5668715847
 H        -4.4592576821       -1.5058031939       -1.4800975025
 H        -6.1561263381       -2.0981431286       -1.8014893638
 H        -6.8479910507       -5.6041691172       -1.3325175285
 H        -7.3213725931       -3.7794259910       -1.6308600640
 H        -7.2886152334       -4.3752685714        0.0104526648
 H        -5.3928027036       -6.6093530927        0.1038412772
 H        -3.8168286244       -5.7852530303        0.0466165887
 H        -5.0791141759       -5.3079723168        1.2416263386
 Na       -3.2162394592       -1.0529469818        1.4376200163
