155

 C        -6.4370162923        2.0354679591        0.0618109024
 C        -5.6502921834        0.9602769083        0.8191979628
 C        -6.1936605931        0.3996647204        2.3240874940
 C        -5.0499208822        0.3836046297        3.3962030951
 C        -5.5283820005        0.5937336159        4.7616376698
 C        -7.3404293067        1.3571923652        2.7816754116
 C        -6.5839993166       -1.0691512309        2.0646509276
 O        -4.6147358125        0.5880075509        0.4696468306
 O        -3.8493621923        0.1576682679        3.1811012922
 C        -4.7215528611        0.0618832730        5.9495006789
 C        -3.4207059041        0.8480659294        6.2541124631
 C        -2.2205720337        0.3763560473        7.0519145612
 C        -1.3074271090       -0.7433757410        6.4156681507
 C        -1.4406100061       -0.8423847781        4.8159312190
 O        -3.3418191506        1.9212463610        5.6677761391
 O        -0.5196177823       -1.3821687553        7.0287707967
 C        -1.3519181511        1.6237710528        7.1339658891
 C        -2.6856905160       -0.0879044432        8.4462110578
 C        -0.1289965759       -1.2011513393        4.0875832851
 C        -0.5537243210       -1.6343339143        2.5534334008
 C         0.3337851335       -1.4964846125        1.3994266345
 C         0.0176129182       -0.2195014776        0.5865663935
 C         1.0881712125        0.4942249066       -0.1126555806
 C         1.8558279821       -1.5804855208        1.8288516211
 C         0.2080258513       -2.7950161272        0.4457806319
 O        -1.5609886248       -2.2968100821        2.4424628573
 O        -1.1498340294       -0.0393889723        0.3125058638
 C         1.0055193530        2.0463592820        0.1449305279
 C         1.0231948223        2.3154836512        1.5652420368
 C         1.8256893905        3.7020714777        1.9091318701
 C         3.0155923911        4.0366284599        1.0002443492
 C         3.6041001921        5.5277046586        1.0445512494
 O         0.5876454175        1.4695214632        2.3389911894
 O         3.6159996827        3.2591834660        0.3327688052
 C         0.7608992897        4.8057384565        1.7257848235
 C         2.2752949318        3.6858940734        3.4237275648
 C         4.5848230854        5.7900637030       -0.1901605229
 C         3.7172616498        5.9645686439       -1.4138185289
 C         4.5580436160        6.0322864632       -2.7600911377
 C         5.2204293182        4.6161002388       -3.0251042049
 C         4.2938045742        3.3785654103       -2.8369048132
 C         3.7911103181        6.2973363583       -4.1673382929
 C         5.6927848414        7.0390660141       -2.6109297433
 O         2.5117961838        5.8697080080       -1.3974347553
 O         6.2568666607        4.4975344904       -3.6083872414
 C         4.8412216192        2.0420366832       -3.3609085064
 C         4.0446123230        0.8137528336       -2.9272320890
 C         4.7124650546       -0.5930552841       -2.3999912696
 C         3.6783279813       -1.7408749509       -2.5065900815
 C         3.3149377017       -2.3221046154       -3.8829798394
 O         2.8124583533        0.8085372434       -2.9177587433
 O         3.0556009663       -2.2160926662       -1.5652814850
 C         6.0659541458       -0.9390074730       -3.1129982486
 C         4.8997038544       -0.3136093609       -0.9501395605
 C         2.5364524782       -3.6049947906       -3.8080036304
 C         1.7412888278       -3.8005639913       -5.0645179620
 C         0.6929603344       -4.9721422422       -5.2231357183
 C        -0.3657522892       -4.9971080429       -4.1119975726
 C        -1.7335822028       -5.6653114917       -4.3371263227
 C         0.0385878172       -4.8601797524       -6.6108996700
 C         1.4194405137       -6.3021093107       -5.0103347360
 O         1.9549455802       -3.1802008981       -6.0925807682
 O        -0.0858809676       -4.6120982382       -2.9841410400
 C        -2.6538819016       -5.6627926266       -3.1415829864
 C        -3.5019786395       -4.2846569066       -3.0213803600
 C        -4.4873783930       -3.9902679427       -1.7496836950
 C        -4.2632068833       -2.6440123504       -1.1189874754
 C        -4.5235854877       -1.4315646183       -1.9442666715
 O        -3.5690367840       -3.6219255440       -4.0446685900
 O        -3.9320777603       -2.5832959178        0.0663812162
 C        -5.9201933653       -4.1533845447       -2.2186078850
 C        -4.2324855787       -5.1610771764       -0.7965601918
 H        -6.5182358875        2.9587790181        0.5495122748
 H        -6.1665915659        2.3094195527       -0.9339925238
 H        -7.4913789806        1.7567110151       -0.0339339162
 H        -5.7560806421        1.6617817353        4.9767474657
 H        -6.5934606218        0.2440068760        4.7129415960
 H        -6.8981743744        2.3281013922        3.0330565791
 H        -7.9057256181        1.0461632904        3.6313208164
 H        -7.9982295545        1.5403792445        2.0033624443
 H        -7.0246166443       -1.6500368762        2.8519356573
 H        -7.3575821205       -0.9687331494        1.2960073248
 H        -5.7579151635       -1.6812102253        1.6175732811
 H        -5.3387377130        0.2289280499        6.8197427977
 H        -4.5138275845       -1.0025715680        5.8172178080
 H        -2.1907342193       -1.6546650705        4.6927682367
 H        -1.8770604598        0.0677771475        4.5344521254
 H        -2.0620740357        2.4076604265        7.5392253244
 H        -0.7800995856        1.8397743709        6.2636925706
 H        -0.6259703125        1.3178316785        7.8091442412
 H        -3.4031796506       -0.8743513262        8.2866768174
 H        -1.8266357710       -0.5200830699        8.9901083734
 H        -2.9328511318        0.6793561168        9.1516033413
 H         0.4372607322       -1.9427902029        4.7032787930
 H         0.5411585197       -0.2591391050        4.0350554520
 H         2.1033350095        0.2167609717        0.1594761667
 H         0.9632104133        0.3655675188       -1.1860339254
 H         2.4041036669       -1.5502120441        0.8644275245
 H         1.9864424389       -2.5130205230        2.3680401867
 H         2.2352867053       -0.7451152694        2.3748134745
 H         0.8404041872       -2.6686666618       -0.5168580463
 H         0.3903622845       -3.6033489291        1.1431448296
 H        -0.7876182845       -2.7302563608        0.1645973584
 H         1.9383938261        2.3102230988       -0.3958607636
 H         0.1546202098        2.4774689835       -0.4160658680
 H         2.7942003842        6.2984536963        1.0067226789
 H         4.1143257543        5.7721193719        1.9734058367
 H         0.8121587288        5.1970337984        0.6560358563
 H         0.9828795219        5.4804179800        2.5935035949
 H        -0.2715141249        4.4558243913        1.8811843936
 H         2.4858643119        4.7364461046        3.7754993589
 H         1.6566120816        3.2343756081        4.1025852950
 H         3.1399680661        3.0868006765        3.4744370773
 H         5.2805780353        4.9596772488       -0.2588586312
 H         5.1185338393        6.7307278057       -0.0991326784
 H         3.9695496284        3.1897204467       -1.8141672966
 H         3.3833822539        3.6049798007       -3.2989501751
 H         3.1501183343        7.1741001108       -4.2091929411
 H         3.1645937443        5.3333271475       -4.4481634316
 H         4.5258923512        6.4670294237       -4.9856241797
 H         6.6281855142        6.7810962280       -1.9858418105
 H         6.1966973216        7.1829567246       -3.5522287315
 H         5.2537178942        7.9844212049       -2.2237913395
 H         4.7027695842        2.1324807756       -4.4150085661
 H         5.9573160917        1.8749982128       -3.0746041132
 H         2.7952600284       -1.5223992471       -4.5182065939
 H         4.2516569281       -2.4413853376       -4.3711877132
 H         6.5896210841       -1.7279731459       -2.7228148587
 H         6.7212566032       -0.1366369141       -2.9466393890
 H         5.8775120986       -1.1311527475       -4.1794454435
 H         5.4496871957       -1.1494205453       -0.4151665164
 H         5.4678631639        0.6058718286       -0.8808570165
 H         3.8913837401       -0.0675371432       -0.5025368833
 H         1.7521529615       -3.6054936561       -2.9224612870
 H         3.1649550982       -4.5754682874       -3.6916781517
 H        -2.1539162760       -4.9567295832       -5.1245514954
 H        -1.6119233091       -6.6373730840       -4.8848277029
 H         0.7675581015       -4.9613210481       -7.3890496630
 H        -0.7469615199       -4.0317873186       -6.7058728272
 H        -0.6096652304       -5.7724357449       -6.7615306958
 H         2.3041330060       -6.1897319278       -5.6304367093
 H         1.4909013438       -6.6505070512       -4.0051426744
 H         0.8036645303       -7.0169523547       -5.5097038254
 H        -3.4572331455       -6.3908660747       -3.1004619123
 H        -1.9741147622       -5.7495440283       -2.3045997567
 H        -3.8008389862       -0.6911879748       -1.7023949203
 H        -4.7537332689       -1.5330408886       -3.0342372404
 H        -5.4462686985       -0.9087096588       -1.5323643629
 H        -6.0248947716       -5.0510355026       -2.8705495371
 H        -6.2162638092       -3.2901261311       -2.8215738994
 H        -6.6378660673       -4.2935612639       -1.4541120159
 H        -4.6208227159       -6.1013918760       -1.0704141948
 H        -3.1561971259       -5.2415580201       -0.5690732838
 H        -4.7173366673       -4.8649961260        0.0379958368
 Na       -3.0601885623       -0.9853181717        1.2500195462
