155

 C        -4.9465123883       -9.6434058291        0.0929870252
 C        -5.8694306057       -8.6571254059       -0.5065952688
 C        -5.5031692649       -7.1324677917       -1.0440216409
 C        -4.8198927114       -6.4144581958        0.0953630819
 C        -4.6406645068       -4.8517517748       -0.2181616037
 C        -4.4953490471       -7.2872960947       -2.2169843352
 C        -6.9230840070       -6.6492292854       -1.4573065596
 O        -6.9864356662       -9.0447287613       -0.6751540045
 O        -4.6591745367       -6.9248150022        1.1951306569
 C        -4.9517875384       -3.9612244650        1.0393764171
 C        -4.2291719955       -2.6651502566        1.0471366369
 C        -4.1754753986       -1.8043568375        2.3660784924
 C        -4.0323085691       -0.3148219825        1.8759340039
 C        -2.5726726344        0.2472206668        1.5351027374
 O        -3.5944920484       -2.2585835760        0.0995555562
 O        -4.9933899587        0.3289658609        1.5884087539
 C        -5.5180533390       -1.8207972617        3.0206202334
 C        -3.0276793036       -2.2363675729        3.2620973176
 C        -2.5935567531        1.7582259286        1.0391550901
 C        -1.1663670170        2.1236421688        0.6279679633
 C        -0.7216160509        2.7830137235       -0.7339636091
 C         0.0387940629        4.1178525397       -0.2438303598
 C        -0.5456807956        5.5381745153       -0.1852466326
 C         0.3589437170        1.7767884244       -1.2801749234
 C        -1.9008743513        3.0633475656       -1.6764157235
 O        -0.2543818462        1.7688851560        1.3119626494
 O         1.2508234007        4.0162669287       -0.0305958590
 C        -0.0703248868        6.2150760412        1.2198869347
 C        -1.0433759159        5.9310535559        2.2822214005
 C        -1.1615922380        6.9544797756        3.5030920458
 C         0.1275813372        6.6414093633        4.3929142880
 C         0.0347808581        5.4213731498        5.2356897298
 O        -1.7471543005        4.9736480134        2.2524851323
 O         1.1454418719        7.3040916058        4.3013225652
 C        -1.1998684574        8.4540770877        3.0941265663
 C        -2.3865980817        6.6774097230        4.3607267584
 C         1.4114468076        5.0669840394        5.7963249558
 C         2.1356156717        4.1360594256        4.8788959500
 C         3.5474307551        3.5543345332        5.3573438296
 C         4.2084625397        2.7451385950        4.1435813930
 C         5.6200207865        3.1085442430        3.7021764064
 C         4.5546144204        4.6302128399        5.8563557712
 C         3.2227358964        2.6261729136        6.4936145164
 O         1.6298903439        3.9012990194        3.8014232897
 O         3.5716142640        1.9283254081        3.5467245457
 C         6.1231736937        2.4266981541        2.3787418846
 C         5.1528934540        2.6956565792        1.1675659359
 C         5.1768036861        1.7105788461       -0.0392922612
 C         3.8230897918        0.8078679278       -0.0974526295
 C         3.9266580433       -0.3671167430       -1.0099715268
 O         4.5302781883        3.6988502931        1.0699636958
 O         2.8940663336        1.0852236112        0.6253125025
 C         5.1959679382        2.6784173392       -1.3187966537
 C         6.3439243693        0.7841499745       -0.0776668562
 C         2.4981950250       -0.8878878376       -1.3900402251
 C         2.7228211192       -1.8071209118       -2.5495341959
 C         1.5511546365       -2.4775111837       -3.4568361123
 C         0.5511947595       -1.3947209918       -4.0075598812
 C         0.1007246172       -1.4405121565       -5.4321510503
 C         2.2208371379       -3.3374362917       -4.5293571449
 C         0.7191596428       -3.3775408823       -2.5580153958
 O         3.9116636520       -2.1808946731       -2.8196601192
 O         0.1929784502       -0.6127766563       -3.1269851481
 C        -0.7023829671       -2.7032566569       -5.8165540800
 C        -0.4931054114       -3.0258453787       -7.2596321534
 C        -1.6305473700       -4.0462374941       -7.9100982784
 C        -1.7193733661       -5.3680348332       -7.1215606954
 C        -2.8878923008       -6.3748713422       -7.3682631471
 O         0.4043019915       -2.5584362877       -7.9814300886
 O        -0.7984922368       -5.6790452312       -6.3858554334
 C        -3.0688917262       -3.4087985272       -8.0328478384
 C        -1.2336461065       -4.4259614840       -9.3893012224
 H        -5.0882994382       -9.5746984129        1.1656789136
 H        -5.2887285921      -10.5996709698       -0.2808230728
 H        -3.9403032970       -9.6327045818       -0.2399305006
 H        -3.6141743894       -4.7991993911       -0.5913034960
 H        -5.1527135803       -4.6200001519       -1.1265944272
 H        -4.2148409840       -6.3360155757       -2.6181396706
 H        -4.8413975352       -7.8919527588       -2.9886574807
 H        -3.4961624164       -7.5853291996       -1.7962850158
 H        -7.6498038361       -7.0969796549       -0.8283777027
 H        -7.0633744951       -5.5099556857       -1.4585267463
 H        -7.1704950824       -6.9701544991       -2.5546619871
 H        -6.0276760614       -3.6776495612        1.1200037484
 H        -4.7848569741       -4.4516071636        2.0160727271
 H        -1.8354958237        0.0830036925        2.3592604248
 H        -2.2575670810       -0.3762356695        0.6108973626
 H        -5.5613480170       -1.3408554072        4.0493650800
 H        -6.0683734468       -2.7735283824        3.0232448945
 H        -6.3003431393       -1.4089652545        2.4551324413
 H        -3.1351210741       -3.2928236972        3.3759756953
 H        -1.9915079616       -2.1814410787        2.8820729340
 H        -3.0341045821       -1.7232066496        4.2061103276
 H        -3.0336014719        2.3010958914        1.8497424103
 H        -3.3087206504        1.9520677988        0.3010109613
 H        -0.2360239121        6.2103016580       -1.0031595927
 H        -1.6749978816        5.5793385394       -0.2120552215
 H         1.3565341255        2.0842037971       -0.9003976582
 H         0.3780141306        1.8089071342       -2.3972493484
 H         0.2271134626        0.8113597977       -0.8190749691
 H        -2.6893120283        2.3051566338       -1.5671485371
 H        -2.2955845694        3.9492534809       -1.3015676913
 H        -1.6873900416        3.2424937878       -2.7106646968
 H         0.9392809994        5.8359368079        1.4583320298
 H         0.0297058700        7.3268816272        1.1251629477
 H        -0.7855867346        5.4290334698        5.9331460482
 H        -0.1579665778        4.7044634150        4.4449664484
 H        -0.1946872486        8.7603981999        2.8281339603
 H        -1.6816161177        8.8626883773        4.0005655466
 H        -1.8316372350        8.6565010178        2.2094414655
 H        -3.2333184676        6.7122980397        3.7169406321
 H        -2.4733865984        5.6820709716        4.9125765522
 H        -2.6036489608        7.4105698916        5.1911627089
 H         1.3443959979        4.6798855638        6.8138060462
 H         2.0112573927        5.9205172393        5.7284042152
 H         5.6732321470        4.1565202076        3.5447254613
 H         6.3578031354        2.9741438024        4.5108914676
 H         5.5783396692        4.3237571332        5.9248167260
 H         4.1724340334        5.0212981606        6.7840109238
 H         4.7948743649        5.4324389025        5.0574222378
 H         4.1410098490        2.1462166920        6.9337188046
 H         2.8251761673        3.1912342324        7.4042152996
 H         2.5627523324        1.7695145075        6.3242483639
 H         7.1202016591        2.9518083358        2.0986444218
 H         6.3000717081        1.4069915665        2.6024877450
 H         4.6098231739       -0.1865394692       -1.7542505187
 H         4.3584671556       -1.2332396928       -0.4637211418
 H         5.2323012069        3.7148298889       -1.1093550780
 H         4.2148384800        2.6022567206       -1.8595067749
 H         5.9555223005        2.4711727558       -2.0197474705
 H         6.3434527497       -0.0189984562       -0.8580928467
 H         7.2276660691        1.2562324393       -0.2216646393
 H         6.5266125175        0.2959217382        0.9422257394
 H         1.9077683308       -0.0625611255       -1.6956249880
 H         2.1158443396       -1.4713618037       -0.6259770938
 H        -0.4545606590       -0.5413489295       -5.6844941799
 H         1.0503243166       -1.5051369780       -5.9731696324
 H         2.9102570324       -2.8086633725       -5.2657296641
 H         1.4475944330       -3.8632369526       -5.0138752043
 H         2.7515306029       -3.9924478208       -3.9218271511
 H         0.2967910840       -2.7599157795       -1.8411085854
 H        -0.0719358555       -3.7656085115       -3.2148751340
 H         1.1861093290       -4.1739131798       -1.9511784154
 H        -0.5180743906       -3.5379037999       -5.1542867169
 H        -1.7283447967       -2.3807473312       -5.7998392432
 H        -3.6936843630       -6.1344198169       -8.1097766509
 H        -2.4858401136       -7.4274247850       -7.5259168402
 H        -3.3613223182       -6.5411001154       -6.3712487398
 H        -3.0422351136       -2.6940752496       -8.8713230639
 H        -3.3619067007       -3.0076417914       -7.0765374158
 H        -3.8417984015       -4.1788424103       -8.2591763420
 H        -1.9920407722       -5.0307569976       -9.8601769084
 H        -1.1381586499       -3.4328472311       -9.8657295151
 H        -0.2581789510       -4.8364049502       -9.3199419581
 Na        1.9178692681        2.8748703131        1.8030988446
