155

 C        -6.2928783702        2.1515943284        0.8460851818
 C        -5.6594348386        0.9440187400        1.4596319487
 C        -6.4548704448       -0.0453161720        2.3594780116
 C        -5.5558317765       -0.5432721323        3.6176650524
 C        -5.8425749131        0.0966606821        5.0496089468
 C        -7.7444887910        0.6423510865        2.8686806365
 C        -6.7136378796       -1.2075813497        1.3889028773
 O        -4.5082629444        0.5828835061        1.1411035489
 O        -4.6628268368       -1.3104655137        3.3074413306
 C        -4.7655116254       -0.1782791120        6.0619207986
 C        -3.4162952381        0.6847542035        5.6935957978
 C        -2.1777328038        0.4132313736        6.5354780588
 C        -1.3348614413       -0.6839935898        5.7032089359
 C        -0.9439027346       -0.3875922390        4.2027973384
 O        -3.4768083582        1.5575630241        4.8692396733
 O        -0.9679299469       -1.7144929222        6.2712209830
 C        -1.3509442952        1.7467167116        6.5693789231
 C        -2.4216786754       -0.1982391458        7.9515891260
 C         0.0995318530       -1.4473495716        3.7654261067
 C        -0.3313126248       -1.9157356022        2.3234847425
 C         0.5353406405       -1.5402403224        1.2180226725
 C         0.1768264038       -0.1214322649        0.7345414061
 C         1.3212232645        0.7099219041        0.2209365858
 C         1.9851258931       -1.9526186732        1.5382739978
 C         0.1841914635       -2.3729319814       -0.0329165664
 O        -1.3246906741       -2.6273922107        2.1698615414
 O        -0.9716524647        0.3278325270        0.8802894203
 C         0.9366039069        2.2425664557        0.2665060501
 C         1.2679618906        2.7913247655        1.7330371784
 C         1.3122500878        4.3611506142        1.8324278417
 C         2.6447225292        4.7163540556        1.1714940014
 C         3.1303909580        6.1471581058        1.0941449546
 O         1.4740782022        2.0179573702        2.6590602746
 O         3.4148623709        3.8546947815        0.7439011039
 C         0.1204264912        5.0305923970        1.0581172420
 C         1.1904054842        4.8788924102        3.2756533378
 C         4.1889026748        6.2561098392       -0.0930826288
 C         3.5307705446        5.7704399182       -1.4266265813
 C         4.3295646756        5.7799885124       -2.7895529496
 C         5.1169615190        4.3943359976       -2.9720069349
 C         4.4218337888        3.1320863829       -2.7196795880
 C         3.3560591600        5.9570613400       -3.9464157880
 C         5.3969895502        6.8353037732       -2.7356094166
 O         2.3326206805        5.5125319146       -1.4528697434
 O         6.2999913444        4.4136569809       -3.2911782043
 C         5.1673877424        1.9017865469       -2.2556460451
 C         4.2210775685        0.6600441462       -2.4663442293
 C         4.8890094155       -0.7191360802       -2.1751917271
 C         3.7059701377       -1.7572225573       -2.2294284566
 C         3.2735576110       -2.1646332861       -3.6840522262
 O         3.1284265945        0.6504777748       -2.9741174942
 O         2.9996308650       -1.9351563990       -1.2662609452
 C         5.9420010534       -0.9918892639       -3.2814617436
 C         5.5235222467       -0.5918590069       -0.7367474031
 C         2.1718991783       -3.2663690158       -3.5546385705
 C         1.5943375276       -3.7271825958       -4.9287648191
 C         0.8571756209       -5.1278035807       -4.9863791192
 C        -0.3989984728       -5.0121358888       -4.0304959818
 C        -1.7405926679       -5.6476284697       -4.4156712752
 C         0.5784467395       -5.4148197211       -6.4916644384
 C         1.7575779600       -6.2430266687       -4.2428759194
 O         1.9202852485       -3.2117466997       -5.9760799552
 O        -0.2699827390       -4.4818961272       -2.9568371042
 C        -2.7386830587       -5.4788604857       -3.3046622148
 C        -3.3807074164       -4.0857753141       -3.2857673597
 C        -4.4229976141       -3.7333745898       -2.1971704006
 C        -3.6540893490       -2.6537091340       -1.1653856770
 C        -2.9199876807       -1.4672902150       -1.6768996363
 O        -3.1335462472       -3.2378689458       -4.0618777800
 O        -3.8070234735       -2.9570634789        0.0073959550
 C        -5.6453409886       -3.1271501618       -2.8727238016
 C        -4.9225613303       -5.0585111662       -1.4589808120
 H        -6.5137045673        2.9896151148        1.5477822391
 H        -5.6441325774        2.5882662518        0.0768925906
 H        -7.2708992412        1.9787552079        0.3759581558
 H        -5.9272216778        1.1853346600        4.8822501450
 H        -6.8672339264       -0.2702103004        5.3086420879
 H        -7.4850635416        1.5486968147        3.3985527520
 H        -8.2930354126       -0.0245479948        3.5818653635
 H        -8.4953229679        0.9230688027        2.0577914131
 H        -7.4768255665       -1.8325364680        1.8205982064
 H        -7.1105817184       -0.8352927088        0.4828584544
 H        -5.8198268625       -1.8650072534        1.1581588049
 H        -5.0672570001        0.2074091471        7.0133955455
 H        -4.5014265230       -1.1417995987        6.1289039135
 H        -1.9539821175       -0.3345639126        3.7150866985
 H        -0.5364790643        0.5899175866        3.9922837487
 H        -1.7857345076        2.5985668269        7.0941552232
 H        -1.1522366455        2.0976390435        5.5266371911
 H        -0.3990395062        1.5593786344        7.2260733567
 H        -2.9452906551       -1.1732760215        7.9280101656
 H        -1.4177801021       -0.4021398795        8.3593912874
 H        -3.1354190593        0.4379634554        8.4569577291
 H         0.1479053795       -2.2958619685        4.4408199555
 H         1.0603725847       -0.9315040213        3.7479969760
 H         2.3006076923        0.5816610199        0.7053623254
 H         1.4402933546        0.5142232653       -0.8410621591
 H         2.5653846131       -2.1263896583        0.6057506114
 H         1.9748412407       -2.8949622079        2.0592647533
 H         2.6047489034       -1.2924021728        2.2382043640
 H         0.8480798439       -2.1500242351       -0.8496352860
 H         0.2645013129       -3.3740236195        0.3145465602
 H        -0.8956501962       -2.1921319863       -0.1740652844
 H         1.5970069440        2.7292965644       -0.4907327509
 H        -0.1185107843        2.3530961243       -0.0679302401
 H         2.3591465140        6.9161692261        1.1508104479
 H         3.7509259126        6.3408252704        1.9840717641
 H         0.2835406247        5.1459784594        0.0616645753
 H         0.0403171689        6.0573772815        1.3469329622
 H        -0.8358515420        4.5389443495        1.3311239335
 H         1.0713092713        6.0008917746        3.2513482981
 H         0.3329520532        4.4836494099        3.8407113985
 H         2.0962683782        4.8618933525        3.8666641156
 H         5.0001731523        5.5866028224        0.2882415088
 H         4.6173243181        7.2612818261       -0.1503486763
 H         3.6874290269        3.3071057379       -1.8932712278
 H         3.8320908925        2.8958858816       -3.6319719900
 H         2.7956128032        6.9334076370       -3.8562157079
 H         2.7012430825        5.1855623354       -4.0140776899
 H         3.9290856605        5.9563042551       -4.8570080385
 H         6.1157478812        6.7328946058       -1.9032640028
 H         5.8820424352        6.6873700796       -3.6587331565
 H         5.1738675123        7.8573883741       -2.7823357687
 H         6.0173416906        1.7087095914       -2.8237696253
 H         5.4464293970        2.0227841784       -1.1594982424
 H         2.8717612763       -1.2470681895       -4.1561379890
 H         4.0836644508       -2.5758752391       -4.1442847781
 H         6.1857670944       -2.1476908378       -3.3211533547
 H         6.8445020637       -0.3903000740       -2.9961075789
 H         5.7720893523       -0.5823390065       -4.2844381968
 H         5.7177276974       -1.5648451268       -0.2670544965
 H         6.4294887039       -0.0335289188       -0.7886591977
 H         4.8074445735       -0.0881761456       -0.1726045413
 H         1.2827452713       -2.9484221373       -3.0568709328
 H         2.5368881622       -4.0824930341       -2.9569259734
 H        -2.0038594444       -5.2871348602       -5.3823899984
 H        -1.5011350968       -6.6830530242       -4.5130444304
 H         1.3020630758       -6.0323441451       -6.9453644542
 H         0.5025235205       -4.5543099883       -7.1382868022
 H        -0.3195778923       -6.0308875673       -6.5209906546
 H         2.8754326715       -6.2137263301       -4.3821863184
 H         1.6412625226       -6.1198096626       -3.1487240307
 H         1.3512091557       -7.1285366006       -4.6847527057
 H        -3.5764078553       -6.1840743623       -3.5138768657
 H        -2.2600853260       -5.7911008445       -2.3691321920
 H        -2.5772254167       -0.7654433522       -0.8273488165
 H        -2.0442015941       -1.7373649383       -2.3197352475
 H        -3.4986365235       -0.8765232653       -2.3101808108
 H        -6.2433458548       -3.8779176403       -3.3276770006
 H        -5.4738575583       -2.4195338826       -3.7419783865
 H        -6.3225290808       -2.5847763279       -2.1822195537
 H        -5.1267189632       -5.9254408663       -2.1539425148
 H        -4.1702115129       -5.2732182055       -0.6859866966
 H        -5.8399507530       -4.8088768901       -0.8599755771
 Na       -3.0495856462       -1.0423041536        1.4358940471
