155

 C        -4.3775458296       -9.1907360661        0.0152552641
 C        -5.6724318544       -8.6237421406       -0.6521682034
 C        -5.4059149948       -7.1292274877       -1.2661541794
 C        -4.8266808372       -6.2814048337        0.0598138654
 C        -4.4670654675       -4.7738769413       -0.1118858482
 C        -4.4227466874       -7.2163659658       -2.4218482678
 C        -6.7097143167       -6.4470683582       -1.6990050368
 O        -6.6830404226       -9.2803794775       -0.7621573917
 O        -4.8022219182       -6.7928899005        1.1692312878
 C        -5.0308171534       -4.0594590736        1.0677687002
 C        -4.2028985360       -2.6636314762        1.1676579094
 C        -4.2198161378       -1.7948696761        2.4605595379
 C        -4.0282280644       -0.2765983126        1.8599562769
 C        -2.6262194029        0.1545856087        1.5536098848
 O        -3.5895627816       -2.3358803809        0.1571971001
 O        -4.9651663512        0.4791719724        1.7511781918
 C        -5.5207145739       -1.8989973963        3.2593146953
 C        -3.1122938146       -2.3924267740        3.3165318809
 C        -2.5123371345        1.6267355036        1.0037130104
 C        -1.1151115264        2.2043201132        0.8199701449
 C        -0.7127228392        2.9897959207       -0.6017306055
 C         0.1967332226        4.2180723138       -0.2157025653
 C        -0.4184206908        5.6168279910       -0.0719312687
 C         0.1225561683        2.0596255973       -1.5050844251
 C        -1.9399462258        3.4331050842       -1.5205720320
 O        -0.2101748655        1.8574355007        1.5943263316
 O         1.3694573466        4.0665035368        0.0331695974
 C        -0.0069482733        6.2442542230        1.2363861705
 C        -1.0386876849        5.9642612495        2.3425521293
 C        -1.0976366085        6.9681326805        3.5505303331
 C         0.1351633583        6.7417984320        4.4691747125
 C         0.1314718903        5.5271891669        5.4171467653
 O        -1.7893223876        4.9594474714        2.3081318027
 O         1.0851794621        7.5187631206        4.3964512945
 C        -1.0809978298        8.3952560899        2.9955643465
 C        -2.4380421188        6.5881751501        4.3042513098
 C         1.4897380731        5.0052394572        5.8776718391
 C         2.2139236249        4.1301953006        4.8154508861
 C         3.6294400743        3.6703227122        5.2655739697
 C         4.2975787172        2.8305920122        4.1188506621
 C         5.7281142559        3.0750857949        3.5912564415
 C         4.3462378690        4.9989180099        5.6869164413
 C         3.4431174870        2.7622314409        6.4659707990
 O         1.8672473699        3.9954511272        3.6861704094
 O         3.6713880104        1.8503930297        3.7492108469
 C         5.9984353301        2.1574202972        2.3882174031
 C         5.1819326040        2.5516396365        1.1899183381
 C         5.2925918176        1.7019982896       -0.0634271069
 C         3.9011018364        0.8290863101       -0.2263473870
 C         3.9423252821       -0.3663319400       -1.2817136620
 O         4.2259453038        3.3514138879        1.3352799652
 O         2.9055777883        1.1128208812        0.3778690965
 C         5.3495698196        2.5219886245       -1.3952117934
 C         6.5638238692        0.7738023665       -0.0641122440
 C         2.5487516251       -0.8477318558       -1.6956613133
 C         2.7329073085       -2.0505503254       -2.7526617385
 C         1.4075066014       -2.6871249747       -3.3836799390
 C         0.5475134670       -1.5295317016       -3.9524216652
 C         0.0458275751       -1.5703528715       -5.4651763500
 C         1.9918839922       -3.5883719673       -4.5366419115
 C         0.5200689138       -3.5835885625       -2.4915951988
 O         3.8125427604       -2.2951274751       -3.1312803418
 O         0.2924932548       -0.5390496387       -3.3305249287
 C        -0.8457718132       -2.7778061831       -5.7447759290
 C        -0.8439052418       -3.1696029732       -7.2631629269
 C        -1.9567389734       -4.0476346404       -7.8278215001
 C        -1.9016716707       -5.4428976112       -7.0611247477
 C        -2.8280150846       -6.5388168197       -7.4738244557
 O         0.0230585305       -2.8014802768       -7.9996905349
 O        -1.1127091239       -5.6031435568       -6.1695198435
 C        -3.3113449614       -3.2067650230       -7.5661970238
 C        -1.7457500777       -4.3918098831       -9.3466336666
 H        -4.6413487462       -9.5162869046        1.0333771394
 H        -4.1099111236      -10.0815435822       -0.5850722161
 H        -3.4856279352       -8.5568990962       -0.0919136934
 H        -3.3644310634       -4.6420512634       -0.1798523676
 H        -4.9758059019       -4.5193179880       -1.0975659091
 H        -4.7332875620       -6.5654423881       -3.2630233834
 H        -4.4736061671       -8.2589296309       -2.8655928653
 H        -3.4357846161       -6.8931686080       -2.1751701183
 H        -7.6289839755       -6.8523922054       -1.1761193955
 H        -6.6712011778       -5.3874838386       -1.5647219429
 H        -6.8389832456       -6.5333203913       -2.7171568826
 H        -6.1201714659       -3.9054627159        1.0693269386
 H        -4.7963246043       -4.6844716136        1.9480842041
 H        -2.0016855226       -0.0135619171        2.4371550520
 H        -2.3100006965       -0.4918646504        0.7835974962
 H        -5.3170114455       -1.7806130163        4.2706080514
 H        -6.0437591713       -2.8091663571        3.1798961875
 H        -6.4079112897       -1.2995216922        3.1108020874
 H        -3.3527009928       -3.4677175167        3.5177237563
 H        -2.1336542335       -2.4574572234        2.8843707051
 H        -2.9549847509       -1.8476406767        4.2841501200
 H        -3.2942698087        2.2858473775        1.5101846028
 H        -2.9670732477        1.6709224263       -0.0526972655
 H        -0.0103738349        6.2443956824       -0.8449607972
 H        -1.4504045975        5.7524926129       -0.1936880009
 H         0.8009254140        1.4238574848       -0.9528765415
 H         0.6822484867        2.6449612917       -2.2314138009
 H        -0.5255165878        1.3055291832       -2.0785661626
 H        -2.1109597915        2.6594355413       -2.2743393025
 H        -2.9092106909        3.8063660082       -1.0538963978
 H        -1.5777955651        4.2731689970       -2.1634403392
 H         0.8531294402        5.6642865542        1.5942093711
 H         0.3162645025        7.2242741887        1.0781093268
 H        -0.3397584808        5.8825156612        6.3607497560
 H        -0.4714747370        4.6995795557        4.9565547838
 H        -0.0865525991        8.6476158732        2.6313118899
 H        -1.5538298872        8.9451260576        3.7489985472
 H        -1.6733359201        8.4214386318        2.1038250526
 H        -3.3596435306        7.0560322575        3.9133864016
 H        -2.7348219371        5.5971217167        4.5043980756
 H        -2.3079234352        7.0950610891        5.2164019353
 H         1.2230153950        4.3385306262        6.6934426133
 H         2.0688317339        5.9264556106        6.2289927480
 H         5.8489800494        4.1434591027        3.2814539435
 H         6.5100029356        3.0003233818        4.3271189767
 H         5.4191107695        4.7823051680        5.6760130317
 H         3.9859548318        5.3539893950        6.6601117345
 H         4.3414967899        5.7641804983        4.9657847795
 H         4.2359583655        2.1606884465        6.7338108784
 H         3.2072325860        3.2536971938        7.3710553633
 H         2.7100038333        2.0112985202        6.1869490599
 H         7.0050210753        2.1582052695        2.1184032590
 H         5.6806793861        1.1299715404        2.7582606555
 H         4.5637072724        0.1506118889       -2.1294267586
 H         4.4945123755       -1.2744154851       -1.0076473480
 H         4.9116477920        3.5123041202       -1.1801603177
 H         4.8569555124        2.1677309542       -2.2877040877
 H         6.4079566241        2.7194896925       -1.6605521791
 H         6.7275608432        0.2997179758       -0.9710247041
 H         7.5515308144        1.2858269417        0.2204742921
 H         6.4801405738        0.0274633103        0.6800615336
 H         2.0863022792        0.0131651602       -2.1981296797
 H         2.0666875778       -1.0672160631       -0.6737627932
 H        -0.5199830880       -0.6176839052       -5.6149034949
 H         0.9564996916       -1.7047491393       -6.1012974515
 H         2.2423509782       -2.9242451953       -5.3196601500
 H         1.1315103208       -4.1962516333       -4.9699498756
 H         2.8986487174       -4.2041318264       -4.1938852381
 H         0.3783393883       -3.1797732601       -1.4071665645
 H        -0.4724789283       -3.7703684552       -2.8941623565
 H         1.0882402703       -4.4373265287       -2.2836584036
 H        -0.3686802740       -3.6126360700       -5.1963999947
 H        -1.8391429003       -2.6090894053       -5.2665607797
 H        -3.3990463050       -6.0705864838       -8.2825958953
 H        -2.2952462581       -7.4212045062       -7.7683635836
 H        -3.5506999406       -6.8799107849       -6.7052074520
 H        -3.0717145827       -2.2265686545       -8.0172282733
 H        -3.5906944772       -3.2724791314       -6.4915363251
 H        -4.2087737998       -3.6163474206       -8.0620549650
 H        -2.7674101487       -4.5837256279       -9.8325190099
 H        -1.1755709600       -3.5591719445       -9.7979631881
 H        -1.1244391658       -5.3074394614       -9.3092025280
 Na        2.0615410610        2.7276535605        1.7707772208
