155

 C        -5.6833843342        1.7578727405        1.8899515245
 C        -5.1201148401        0.4020258322        1.8096715427
 C        -6.0660001238       -0.9141137087        2.0469574871
 C        -5.0967692823       -1.9322548182        2.6308240181
 C        -5.1557715001       -2.2568351438        4.1334008877
 C        -7.3804421948       -0.6576727138        2.8776641740
 C        -6.2427087786       -1.4167057029        0.5666375822
 O        -3.9950460350        0.2543605820        1.3415338457
 O        -4.2150993018       -2.4960176374        1.9964456605
 C        -3.8695479535       -1.9886953245        4.9935752105
 C        -3.8075419824       -0.3982774370        5.0894211113
 C        -2.6587533833        0.2256020242        5.9881975553
 C        -1.2986813464       -0.5491017573        5.7604313973
 C        -0.3587801744        0.0459116625        4.8047729358
 O        -4.3365798083        0.4410096657        4.3231198284
 O        -0.9852820137       -1.4348385121        6.4658864244
 C        -2.6655205065        1.7665670222        5.7386357934
 C        -2.9449908836        0.0504544081        7.5075095461
 C         0.6590429266       -0.8741243046        4.1746178145
 C         0.1057979451       -1.6342352349        2.9072630721
 C         0.9482584521       -1.9254077161        1.6052540473
 C         0.5491855072       -0.5452484227        0.8285776181
 C         1.5720207195        0.6427725351        0.7217843656
 C         2.4165517948       -2.1419644747        1.9713958289
 C         0.3437631956       -3.1375455769        0.9558553956
 O        -1.0176404548       -2.0562816694        3.0557106530
 O        -0.6032146791       -0.4179310087        0.4105465344
 C         0.8090602196        1.9106448748        0.2926215693
 C         0.2880285256        2.6649153674        1.5155427389
 C        -0.3359819601        4.1412892290        1.3079035398
 C         0.9869070170        4.9608674576        0.9350901737
 C         0.7726107712        6.3891885878        0.2136028529
 O         0.2914656329        2.1318386020        2.6118167857
 O         2.1086436485        4.6457664564        1.2103784354
 C        -1.4672017381        4.0745073871        0.1796382242
 C        -0.9191100762        4.8160953724        2.5879777029
 C         2.1566602014        6.9178032154       -0.3394151775
 C         2.5104465261        6.0218346975       -1.5905336007
 C         3.9897964660        5.9413150796       -2.1738015974
 C         4.7176384021        4.5921455745       -1.5902548755
 C         4.0666417587        3.2675907781       -1.8175600127
 C         3.8807126409        5.6973320823       -3.7682091160
 C         5.0515153931        7.1431625978       -1.9033344982
 O         1.6303761456        5.3233428742       -2.0411320567
 O         5.8591246855        4.6132244546       -1.1347273658
 C         5.1181077825        2.1720945693       -1.5427770324
 C         4.4904251673        0.7962307358       -1.9793300172
 C         5.3413683238       -0.2831625404       -2.6368694268
 C         4.4913747883       -1.6321187621       -2.3484237192
 C         3.3359065141       -2.1003713657       -3.3725194070
 O         3.2823019376        0.6799241611       -1.8535216715
 O         4.6153136218       -2.2862611292       -1.3417959512
 C         5.5040607135       -0.0883814099       -4.1529735559
 C         6.6997119616       -0.5063578696       -1.9100124831
 C         2.1906911355       -3.0168824407       -2.8684641772
 C         2.0569232986       -4.3312260226       -3.8546770194
 C         1.0473211716       -5.5293286909       -3.5045184168
 C        -0.2445705108       -4.8867370164       -2.9567549925
 C        -1.5477752152       -5.1177318297       -3.8322171314
 C         0.9109085121       -6.4732790830       -4.7097277462
 C         1.8180024499       -6.2710231771       -2.3039144027
 O         2.7089713346       -4.4520507980       -4.8912432294
 O        -0.2317542904       -4.1826579518       -1.9607160283
 C        -2.6469747908       -4.2136844533       -3.3100723262
 C        -2.8789562491       -2.9046408899       -4.1861472972
 C        -3.8722678171       -1.9049202818       -3.5741229754
 C        -3.1418960989       -1.4512865492       -2.3131061214
 C        -2.0527614038       -0.3577501130       -2.2612041866
 O        -2.1793846455       -2.8284065295       -5.1715045015
 O        -3.5059646416       -1.8574369657       -1.2397996289
 C        -4.0657799798       -0.8659602858       -4.6909089682
 C        -5.2222465254       -2.5141595528       -3.2270051753
 H        -6.1234858220        1.8466582020        2.9300985857
 H        -4.9370204406        2.5564924064        1.6844166892
 H        -6.4882159247        1.8952409194        1.1867808470
 H        -5.9552949260       -1.7320716062        4.6865318479
 H        -5.2908712526       -3.3489801192        4.2134928096
 H        -7.1708418659       -0.3834526246        3.9079621231
 H        -7.9862500028       -1.5377635458        2.8266768842
 H        -8.0360659648        0.1323242577        2.5210234774
 H        -6.5852570381       -2.4840802763        0.6510143458
 H        -6.9557150912       -0.8677017378       -0.0375810567
 H        -5.3083392571       -1.3764730327        0.0781544676
 H        -3.9526167751       -2.4974052475        5.9402169609
 H        -3.0411073423       -2.4020219667        4.3822606134
 H        -0.8272104029        0.7572188273        4.0791390836
 H         0.2415598142        0.7770147546        5.3140938133
 H        -3.6946363959        2.2747356242        5.8184131915
 H        -2.2664883986        2.1260557605        4.8042112397
 H        -1.9205643466        2.1569398494        6.4848562211
 H        -2.9948573725       -1.0536592408        7.7401877159
 H        -2.1284164030        0.4856255381        8.0338883245
 H        -3.7441658312        0.7283833587        7.7835787505
 H         1.0395176277       -1.6546554785        4.9504863105
 H         1.5058033604       -0.2865580782        4.0041819547
 H         2.0622750934        0.7225147216        1.7102259518
 H         2.4566793126        0.3754206899        0.0963235886
 H         2.8570578553       -2.4337412979        1.0475214393
 H         2.5607073543       -2.9893802217        2.7554106496
 H         2.8475111980       -1.1897813851        2.3348353537
 H         0.9913707234       -3.4371312333        0.0910041871
 H         0.3514844358       -3.9351498040        1.7519952445
 H        -0.6933892678       -3.0411765711        0.7684080723
 H         1.6249321858        2.5224330672       -0.1321464196
 H         0.0165619503        1.8240723150       -0.4340192990
 H         0.0555097814        6.3795264620       -0.6191447268
 H         0.2362074486        7.0495662204        0.9244976230
 H        -1.1723689904        3.5471133027       -0.7211116040
 H        -1.7319065425        5.0457042593       -0.0460360376
 H        -2.2457402843        3.4812427399        0.5241983773
 H        -0.6036782107        5.9102954858        2.5278118658
 H        -1.9683092513        4.7571445246        2.6394643555
 H        -0.5045726955        4.3446299266        3.4014586734
 H         2.9058866599        6.7803245454        0.4494360991
 H         2.0799841468        7.9809562917       -0.6857136974
 H         3.2041747679        3.1161079544       -1.1348643267
 H         3.7422013642        3.3383679234       -2.9005420103
 H         3.8151991427        6.6634265155       -4.2960377614
 H         2.9306696016        5.2240395578       -4.0777626541
 H         4.7764628051        5.1382812271       -4.1534964357
 H         5.1095338713        7.1106776529       -0.7982264077
 H         5.9486225987        6.8859774775       -2.3654936937
 H         4.7655606809        8.0677291665       -2.2488936740
 H         6.0635684438        2.2770238625       -2.1038707290
 H         5.3897912887        2.1408970943       -0.4981235584
 H         2.7713643307       -1.2213424914       -3.7714887562
 H         3.9653736158       -2.7315738583       -4.1168308025
 H         5.8603979811       -0.9476288833       -4.7211690052
 H         6.1240236856        0.8578335369       -4.2573608768
 H         4.5353077161        0.0806906961       -4.6868544986
 H         7.2258132565       -1.3112851041       -2.3700750488
 H         7.3170628431        0.4414841798       -1.8710214799
 H         6.5587216035       -0.6717992635       -0.8305038428
 H         1.2058851114       -2.4907953294       -2.8996206652
 H         2.4236033853       -3.4303212888       -1.8171766145
 H        -1.4812608344       -5.0196175992       -4.9659123738
 H        -1.9379195247       -6.1688000296       -3.6835012795
 H         1.8705078663       -6.8235671359       -5.0217403823
 H         0.3797638623       -6.0453524979       -5.5468442927
 H         0.3636186672       -7.2622108782       -4.3076502541
 H         2.8661797381       -6.6246150537       -2.5010722088
 H         1.9556026865       -5.5849281164       -1.4224816171
 H         1.3179665118       -7.1255561933       -1.8206627997
 H        -3.5087752187       -4.8399423486       -3.2119564117
 H        -2.2779069302       -3.8435263590       -2.3533477920
 H        -1.0030898156       -0.6787570897       -2.2073378346
 H        -2.2758677907        0.3546706635       -3.0853702736
 H        -2.1220193757        0.2182641353       -1.3180998560
 H        -4.9926362544       -1.1679091969       -5.2205792117
 H        -3.3144558779       -0.7927936744       -5.4717209920
 H        -4.3404763975        0.1708706233       -4.3566791550
 H        -5.0384069754       -3.4542413565       -2.6939450028
 H        -5.8618127485       -1.8011335839       -2.5850156153
 H        -5.6812418263       -2.8282238606       -4.1783310618
 Na       -2.5315694049       -1.5355859661        1.0022122784
