155

 C        -5.9113477920        1.6594722437        1.9617815229
 C        -5.1293415117        0.3606139974        1.6023149095
 C        -6.0233500005       -0.9585305678        1.8657072710
 C        -4.9913443932       -1.9606177527        2.7199295148
 C        -5.2042445240       -2.3770138958        4.1404470687
 C        -7.3137003332       -0.6999633784        2.6862213302
 C        -6.4201184823       -1.6253227268        0.4701204518
 O        -3.9928264564        0.4040127429        1.2270778973
 O        -4.1337528277       -2.6371844609        2.1265017014
 C        -4.0347380456       -1.9634097073        5.0737339548
 C        -3.8671973493       -0.4445334893        5.1440636213
 C        -2.6784780401        0.2076541036        6.1719952307
 C        -1.2900284751       -0.4457128172        5.7947180955
 C        -0.4361676238        0.0676924222        4.6708004997
 O        -4.3954653106        0.3244972276        4.4322008048
 O        -0.8735830143       -1.5058966279        6.2929229903
 C        -2.5792048741        1.7721470086        6.1092468636
 C        -3.0715583495       -0.3290603709        7.6252836196
 C         0.5631641792       -1.0409977884        4.1534585895
 C         0.0021533836       -1.7205743952        2.9996459503
 C         0.9256280840       -1.7721697574        1.6882384423
 C         0.6402223256       -0.4713596261        0.9135923135
 C         1.6230423986        0.6074379430        0.5912673354
 C         2.4992971332       -1.8566212953        2.0139644253
 C         0.5054187873       -2.9160761574        0.7746411547
 O        -1.1940298522       -2.0726153368        3.0119977401
 O        -0.4866601980       -0.3201435461        0.4705975814
 C         1.0129920170        1.9390641324        0.1372040565
 C         0.2564916714        2.6119889281        1.3534471753
 C        -0.2422059153        4.0512226374        1.0531969562
 C         0.8961709687        5.1519437502        0.8897260962
 C         0.6954871037        6.4838737522        0.1738810152
 O         0.1153496227        2.1516512949        2.4532157908
 O         1.9986900517        4.7919689011        1.3367839803
 C        -1.3467728149        4.0063590233       -0.0292498260
 C        -0.8827801231        4.5072535177        2.4676539100
 C         2.0510037927        6.9132938193       -0.4076244675
 C         2.5164019852        5.8246587093       -1.4692002122
 C         3.9447337344        5.9581554762       -2.0529295713
 C         4.8082012673        4.7314575801       -1.5042606947
 C         4.2206446091        3.3090845673       -1.8441106864
 C         3.8734357845        5.7791683394       -3.5768252479
 C         4.5770603254        7.2870295210       -1.6440385477
 O         1.6688599042        5.1038029603       -2.0069371210
 O         5.9063307993        4.8667404878       -1.0680542707
 C         5.1125465198        2.0963899006       -1.8130937007
 C         4.3662961745        0.7695994278       -2.0226820223
 C         5.2652580333       -0.4051745625       -2.5675043564
 C         4.3736179799       -1.7551324025       -2.4206125500
 C         3.4178543068       -2.1391003183       -3.4853751367
 O         3.1538012849        0.6347939197       -1.9473329424
 O         4.3887405889       -2.3800286980       -1.3853577635
 C         5.6235822770       -0.1459656445       -4.0866573978
 C         6.5307476706       -0.6049187861       -1.7723297303
 C         2.4692220109       -3.1762501540       -2.8834726065
 C         2.2038826270       -4.3079477504       -3.8612651058
 C         1.2288597155       -5.5233375841       -3.2496072401
 C        -0.1582538733       -4.8198833139       -2.7926609053
 C        -1.3750305220       -5.0727643246       -3.7677282733
 C         1.0128579083       -6.6013239816       -4.3787249176
 C         1.9158908119       -6.1584531369       -2.0808228677
 O         2.5567618486       -4.4180489967       -5.0346492558
 O        -0.3231037068       -4.3496481555       -1.6678594838
 C        -2.7019624667       -4.2064972733       -3.4593759299
 C        -2.7134427386       -2.9251016804       -4.1061679871
 C        -3.8004452959       -1.7571977630       -3.5697853177
 C        -3.1203045898       -1.2309895162       -2.3880543445
 C        -2.3040084335        0.0076812664       -2.4931003082
 O        -2.0443383700       -2.6596588060       -5.0990152609
 O        -3.3776322833       -1.7306999390       -1.2618163610
 C        -4.0018021311       -0.6800072567       -4.6592546672
 C        -5.1151961718       -2.5701741741       -3.3094249252
 H        -6.7659405439        1.5364139327        2.5606260724
 H        -5.2350440672        2.3773073784        2.3680617654
 H        -6.2377250260        2.1126720538        0.9928622554
 H        -6.0177319121       -1.8438646882        4.6027288723
 H        -5.2585488231       -3.4673397170        4.2403100348
 H        -7.2605235215       -0.0520555550        3.5653639326
 H        -7.8222757578       -1.6733836470        2.9327677493
 H        -8.0731113158       -0.1838637941        2.0550212676
 H        -6.6546234351       -2.6682588318        0.5724613416
 H        -7.3378949554       -1.1000153422        0.1340755889
 H        -5.6536020373       -1.4927140735       -0.3241094793
 H        -4.3217162258       -2.3822354252        6.0334331879
 H        -3.0998183790       -2.3899225387        4.7233808744
 H        -1.0885762584        0.4405157177        3.9056903600
 H         0.1243114028        1.0098926072        4.9094621546
 H        -3.5813746090        2.0496299191        6.0510831260
 H        -2.0154090401        2.1953270370        5.2806986578
 H        -2.1244503772        2.1458989645        6.9438590540
 H        -3.2562007099       -1.3612133585        7.5265939661
 H        -2.2512314138       -0.1794122179        8.3871437432
 H        -3.8493912403        0.3574325609        7.9366355569
 H         0.6545575128       -1.7485138433        4.8770216218
 H         1.6279335656       -0.7123511153        4.0397033539
 H         2.3083828959        0.6673396759        1.4319127356
 H         2.3327645517        0.2314406484       -0.1497219474
 H         3.0552841422       -1.7501220116        1.0542591641
 H         2.6562648918       -2.7625574647        2.4561211059
 H         2.8289313661       -1.1842311511        2.8014321885
 H         1.3057109668       -3.0930621301        0.0720159621
 H         0.1795729890       -3.7921625149        1.3202941154
 H        -0.4007343725       -2.5440161884        0.2768096844
 H         1.8976785253        2.4401784134       -0.2740540610
 H         0.1739146968        1.7980609491       -0.6077351219
 H        -0.0364286361        6.3605735112       -0.6421464427
 H         0.2307249633        7.2523546052        0.7811329107
 H        -0.8426105796        4.1360554234       -0.9954583375
 H        -1.9518185337        4.9478627440        0.0809609391
 H        -1.8823668657        2.9906676722       -0.1048156283
 H        -1.1621460069        5.4823923553        2.3115481789
 H        -1.8615532250        3.9852223290        2.6915324564
 H        -0.0450940039        4.4570124882        3.2498787049
 H         2.7588691057        6.9523550948        0.4104211269
 H         1.9264880306        7.8540312116       -0.8989709711
 H         3.3671513055        3.1430816211       -1.1683208045
 H         3.8714113601        3.3881399363       -2.8462965304
 H         3.5319885037        6.6202534536       -4.1314940650
 H         3.0974845651        4.9998831687       -3.7939675449
 H         4.8409418950        5.4451486266       -3.9306488399
 H         4.7843572213        7.2714366964       -0.6112095868
 H         5.4590925449        7.4385447110       -2.3723394549
 H         3.8012373173        8.1234205546       -1.8669982254
 H         5.8507951387        2.0657168077       -2.6307705869
 H         5.7748348072        1.8789022832       -0.9341989272
 H         2.9013508552       -1.2283875661       -3.7697485108
 H         4.0015194334       -2.6032380968       -4.2383560211
 H         5.5326338503       -1.0833034350       -4.5405234277
 H         6.5492409595        0.2744512102       -4.1856882183
 H         4.9218260145        0.4554358764       -4.6313695398
 H         7.2415460582       -1.2396303436       -2.3285121880
 H         7.0239479696        0.2777551101       -1.5549994671
 H         6.2762403321       -0.9132629563       -0.8037949535
 H         1.5051561029       -2.7634151880       -2.5636336620
 H         2.9575352129       -3.6174627271       -2.0656894350
 H        -1.2218109294       -5.0542449542       -4.8004966327
 H        -1.5751126045       -6.0981453386       -3.5596749111
 H         1.9741326849       -7.1280940023       -4.6997887790
 H         0.8436031530       -5.9431705715       -5.2463278950
 H         0.1440106785       -7.3265263067       -4.1893077554
 H         2.9715837637       -6.3051343888       -2.0542824651
 H         1.7717668302       -5.7055656167       -1.1181614538
 H         1.4942575086       -7.1552635709       -1.9723184418
 H        -3.6382780638       -4.6666119294       -3.8651485480
 H        -2.7258547549       -3.9924563285       -2.3802472772
 H        -1.3086064973       -0.2722483680       -2.8171737613
 H        -2.7231607640        0.7219239794       -3.1402485129
 H        -2.0997856104        0.4526745990       -1.4866200357
 H        -4.7331408976       -0.9214472491       -5.4372989229
 H        -3.0428654027       -0.4757073951       -5.2063669920
 H        -4.3212497313        0.2671248879       -4.2366018340
 H        -5.1392644536       -3.6194819645       -3.6283836042
 H        -5.2358959032       -2.5174637194       -2.3141252121
 H        -5.9033763906       -2.0036313059       -3.8027180801
 Na       -2.3267460901       -1.4892370497        0.8913065600
