155

 C        -6.0392749460        1.2584232876        2.4580290002
 C        -5.3657798464        0.2216822658        1.5911024327
 C        -5.8926983274       -1.3241269401        1.6745801176
 C        -4.8820115908       -1.9435055424        2.7338901888
 C        -5.5352655526       -2.2467754630        4.0956817854
 C        -7.4120478887       -1.4045553279        1.9500876567
 C        -5.5982440302       -2.0649307230        0.3709211937
 O        -4.4506961264        0.5496011643        0.7849624609
 O        -3.7710382387       -2.2619450754        2.3914888404
 C        -4.4653843975       -2.4076353033        5.2830109839
 C        -3.8932374839       -0.9255772596        5.4037127150
 C        -2.9352089068       -0.6621371447        6.5228876676
 C        -1.5610681236       -1.0790908972        5.8588878810
 C        -0.7325900666        0.1191707749        5.1918946726
 O        -4.4087123009        0.0092436244        4.7246521458
 O        -1.0971130847       -2.1674937973        6.0689374636
 C        -2.7436240641        0.8004641290        6.9908806605
 C        -3.2294186060       -1.6189139760        7.7803747188
 C         0.4459010365       -0.5493477809        4.4020304389
 C        -0.1115787920       -1.0397501910        3.0176764131
 C         0.8850060114       -1.5333962068        1.8224691129
 C         0.7238765229       -0.3174629103        0.8167175293
 C         1.8258616882        0.8193570883        0.5700567564
 C         2.4393756821       -1.8322905552        2.2938720507
 C         0.3050290149       -2.8386343653        1.0758730312
 O        -1.2591605788       -0.6990610494        2.7540227971
 O        -0.3430240162       -0.2687410284        0.1660387042
 C         1.1145179081        2.1196216357        0.0560070728
 C         0.0311608114        2.6146625426        1.0579412197
 C        -0.6266527697        3.9902145953        0.7261762355
 C         0.3470463355        5.1402906248        1.1727768755
 C         0.4354510002        6.3510256462        0.2945206929
 O        -0.1912297478        2.0149859764        2.0529789312
 O         1.0474439716        5.0077776226        2.1450778082
 C        -1.1426620874        4.0610610672       -0.8605254818
 C        -1.8187685372        4.2511277163        1.6602378007
 C         1.7506006988        6.7986370381       -0.4381403830
 C         2.5528592977        5.7442887741       -1.2505919127
 C         3.8514293080        6.0999181269       -2.0964964189
 C         4.7179736496        4.7655906288       -2.1287037670
 C         4.3515512475        3.5225875671       -2.9757087645
 C         3.3907842924        6.6476317773       -3.4695690008
 C         4.8022137358        7.1563260848       -1.4020128854
 O         2.1538337240        4.6079867226       -1.3569121822
 O         5.5691783091        4.6174297259       -1.2428277520
 C         5.1776912595        2.3302077826       -2.5395333968
 C         4.5563963819        0.9379583445       -2.8410225795
 C         5.4228894371       -0.3359183000       -2.5037052395
 C         4.3925584224       -1.3547602225       -1.7700365926
 C         3.8991975567       -2.4846631730       -2.7451432235
 O         3.5164661670        0.8167305326       -3.4455497035
 O         3.9334847430       -1.0806566346       -0.6708370750
 C         6.0063066105       -0.7750263169       -3.8654274460
 C         6.5321868709        0.0234271959       -1.5349819738
 C         3.1157172672       -3.6291833366       -2.1355464725
 C         2.2943696945       -4.4209066089       -3.2660204910
 C         1.4098463019       -5.5673069462       -2.8319548464
 C        -0.0734075607       -5.0449341513       -2.9142066915
 C        -0.7923551308       -4.7297886993       -4.1674274437
 C         1.6446655669       -6.7971243937       -3.8494310865
 C         1.5735895945       -6.0678566814       -1.3958364338
 O         2.2347763297       -4.1572632168       -4.4635290986
 O        -0.6395758344       -4.8752007340       -1.8435762625
 C        -2.1990238145       -4.0473770263       -3.9424783907
 C        -2.1863926974       -2.5770530309       -4.2932819547
 C        -3.3839987143       -1.6000286516       -3.9470020289
 C        -3.1353550899       -1.1724845841       -2.5621838931
 C        -2.5613802566        0.2509866543       -2.1198099937
 O        -1.1862197231       -2.0291036262       -4.7412035893
 O        -3.0522543689       -1.9401327955       -1.5877991821
 C        -3.2692612103       -0.4451995343       -5.0197041445
 C        -4.7328739582       -2.3402059907       -4.0193956807
 H        -6.7543304550        1.8263555302        1.8923011446
 H        -6.5102166498        0.7767244017        3.3324019281
 H        -5.2578249601        1.9576601453        2.8370437569
 H        -6.1580223110       -1.4248255248        4.4838145188
 H        -6.1801094120       -3.0631471901        3.8717832030
 H        -7.6362978127       -1.2204586006        3.0436572856
 H        -7.7322607176       -2.4083298903        1.6371053523
 H        -8.0144640641       -0.7042257302        1.3803559682
 H        -6.0384878330       -3.0394534605        0.5020024208
 H        -6.1799351088       -1.6501043184       -0.4442505952
 H        -4.5509511814       -2.1347234939        0.0487301714
 H        -5.0044904809       -2.9246643758        6.1821883878
 H        -3.7060138907       -3.1693646872        4.9818416489
 H        -1.2471801235        0.7321724055        4.4743045745
 H        -0.2690992235        0.6333655005        6.0231995590
 H        -3.4319983110        0.9276593562        7.7384652674
 H        -3.0737771966        1.4290586825        6.1766017144
 H        -1.8026819465        0.9384120234        7.3720234571
 H        -3.2255630794       -2.6702571771        7.5423205360
 H        -2.5603625782       -1.1829442044        8.5230644776
 H        -4.2718248655       -1.3700529247        8.0042891458
 H         0.9076422220       -1.3302058544        4.9853823090
 H         1.1610735823        0.2462236327        4.2168059598
 H         2.3429600337        0.9492632484        1.5176748078
 H         2.4179416864        0.5129617091       -0.2692470619
 H         3.0759315879       -2.0645249366        1.3904620493
 H         2.4508810603       -2.8267168583        2.6708561724
 H         2.9294391279       -1.1185739485        2.9310475911
 H         0.9165046352       -3.2365987303        0.2797009383
 H         0.1668549849       -3.6725561416        1.7291666077
 H        -0.6244256806       -2.4735066363        0.5783754602
 H         1.9508177921        2.8642463783       -0.0680970426
 H         0.6418276797        1.7836144172       -0.8948284502
 H        -0.3294937494        6.2590736108       -0.4360719308
 H         0.2751682946        7.2449770626        0.9312904809
 H        -0.3237674352        4.1814512098       -1.5357086547
 H        -1.7218116664        5.0516318809       -0.9252096961
 H        -1.7338516294        3.1914135421       -1.1791435390
 H        -2.4737395283        3.4816696634        1.8279841408
 H        -1.2911192755        4.6634328455        2.5598986623
 H        -2.4328463193        5.1655834027        1.3191132051
 H         2.3637436400        7.2634447187        0.3444127753
 H         1.5320180008        7.6714149097       -1.0187592831
 H         3.3401875913        3.3194131652       -2.8127996964
 H         4.3798960705        3.7772034472       -4.0658858079
 H         2.3889644975        7.1252456112       -3.4113281961
 H         3.3222310926        5.9061093351       -4.2966705138
 H         4.0142220583        7.4318881282       -3.8660049599
 H         5.1949493787        6.7511672460       -0.4972826247
 H         5.6821459402        7.4574425014       -2.0989367636
 H         4.2686917750        8.1762014366       -1.2612418176
 H         6.1530674450        2.3413631093       -3.0066916915
 H         5.3232527712        2.3774643220       -1.4213566198
 H         3.4179673435       -2.0057515214       -3.5224354795
 H         4.7297745683       -2.8543393421       -3.2954905571
 H         6.8615238895       -1.3666637569       -3.6685556424
 H         6.3155983205        0.0750894093       -4.3452256607
 H         5.2480585739       -1.2278079955       -4.4699476902
 H         7.0282222130       -0.8763940725       -1.2473347059
 H         7.1325729643        0.7930109153       -1.8783122538
 H         6.1268422071        0.2298416481       -0.5658581160
 H         2.3504895099       -3.3919365580       -1.4910104620
 H         3.8069776586       -4.3230552170       -1.5958650355
 H        -0.2074757027       -4.1069273938       -4.7658586991
 H        -0.9029675002       -5.5750652405       -4.7513667017
 H         2.7223966206       -7.0998902207       -3.8232934324
 H         1.3997200541       -6.4555642817       -4.8761455994
 H         0.9696917558       -7.7041673846       -3.7294540957
 H         2.6156175768       -6.3604406757       -1.3379533323
 H         1.3856041745       -5.3466740252       -0.6360824078
 H         0.9468504913       -6.8653851841       -0.9468883856
 H        -3.0908366253       -4.3733198765       -4.5215369542
 H        -2.4447094351       -4.3017269292       -2.8793553021
 H        -2.6677176255        0.9755936244       -2.8831980492
 H        -3.1688543042        0.6688670839       -1.3339649653
 H        -1.5330315332        0.1277712238       -1.7582263604
 H        -3.2430500305       -1.0022047130       -5.9902748835
 H        -2.2591990198       -0.0496919298       -4.7903271070
 H        -4.0610517375        0.2965956349       -5.0412393376
 H        -5.5354302011       -1.6782561753       -4.3621323796
 H        -4.4915091107       -3.0459378853       -4.7273993386
 H        -4.9395611012       -2.8308738260       -3.0801432050
 Na       -2.5412851239       -1.1988628568        0.6391172722
