155

 C        -6.5206265621        1.2413990860        2.0532088334
 C        -5.6496644865        0.1378415484        1.5165383213
 C        -6.1358183284       -1.2961363120        1.6588889460
 C        -5.1236090483       -2.1505553054        2.5755010784
 C        -5.6743200896       -2.8495323203        3.8491658863
 C        -7.5825467402       -1.3969585461        2.2701594490
 C        -6.2584881468       -1.9143061580        0.2330191952
 O        -4.5553416851        0.3609946686        1.0423816264
 O        -3.9470060064       -2.2058315939        2.2813274618
 C        -4.4982985636       -3.1591803372        4.7927982441
 C        -4.2196860002       -1.9145925516        5.8033887350
 C        -2.8976925635       -1.9452729098        6.7154499397
 C        -1.6878517139       -1.4489840266        5.7249886173
 C        -1.4689063830        0.0551717899        5.3841179697
 O        -5.0796047836       -1.0749408263        5.7480012816
 O        -0.9404665336       -2.2772070924        5.1638938399
 C        -3.2932669016       -0.9471058286        7.8064107851
 C        -2.5162918678       -3.3812332001        7.0549006849
 C        -0.5547846170        0.2289853505        4.2156519842
 C        -0.8095405632       -0.5251063872        2.9783551506
 C         0.4255162640       -0.9562542425        2.1932747978
 C         0.4108564141       -0.3268162216        0.6377319920
 C         1.4413139833        0.8064470846        0.1940091567
 C         1.8140132181       -0.6649602274        2.8091388584
 C         0.2381672466       -2.4642005014        1.9143129090
 O        -1.9343643932       -0.5710275811        2.4738654669
 O        -0.2877618067       -0.8178758897       -0.2305155950
 C         0.8336891162        2.1320269966       -0.1547460190
 C        -0.2301381716        2.5795912650        0.8287452460
 C        -0.8341459227        3.9420246724        0.5857484562
 C         0.4071319744        4.9705421783        0.8951910927
 C         0.4170448650        6.3255870440        0.0931672369
 O        -0.5545855879        1.8548709622        1.7880009706
 O         1.2232283982        4.7775690882        1.7650872378
 C        -1.3297976624        4.0410539978       -0.8844917992
 C        -1.8765627673        4.3764358111        1.6288657735
 C         1.8601864215        6.6664786041       -0.3137423084
 C         2.3599309310        5.7302932137       -1.3736564209
 C         3.6386674843        6.1034816981       -2.3645895218
 C         4.6844966951        5.0352131077       -2.0967993391
 C         4.4298706474        3.6232659969       -2.6785346543
 C         3.0773296183        6.1862189482       -3.7970662631
 C         4.2481317834        7.4241089171       -1.9796772643
 O         1.9189928083        4.5966645095       -1.5757838915
 O         5.7435529770        5.2790316468       -1.6497571295
 C         5.3392745912        2.6149348519       -1.9652054619
 C         5.2152556320        1.2402767533       -2.7488601747
 C         5.7968560894       -0.1448281977       -2.2545253475
 C         4.6605817595       -1.1948829504       -1.9001305388
 C         3.8608382688       -1.8450134512       -2.9782957644
 O         4.6380606440        1.1730380403       -3.7952659233
 O         4.4830688434       -1.3255122726       -0.7064984618
 C         6.6526881408       -0.4464211589       -3.4237081836
 C         6.6694329675        0.0070633021       -0.9822428789
 C         2.7361935774       -2.8063315266       -2.4637260497
 C         2.7078026722       -4.1866266244       -3.0197842840
 C         1.7437421624       -5.2000855093       -2.3252129818
 C         0.2225173162       -4.7691627176       -2.5362709839
 C        -0.2973713834       -4.7024442615       -4.0056519198
 C         1.7741067940       -6.6672645594       -2.9093704193
 C         2.0225414194       -5.2280601246       -0.8280404050
 O         3.3247574359       -4.4851410102       -4.0249034564
 O        -0.4813849596       -4.6844123033       -1.5653509584
 C        -1.6641360118       -3.9437069049       -4.1412591905
 C        -1.5341078703       -2.4697123732       -4.0397286086
 C        -2.8969740575       -1.5830704984       -4.0263836161
 C        -2.8900507728       -0.8149911427       -2.6958385826
 C        -1.9390860716        0.4417321136       -2.4741495739
 O        -0.4451890027       -1.9245695501       -4.2757081750
 O        -3.6398219169       -1.2489225955       -1.8026224197
 C        -2.7170748487       -0.6259396545       -5.2819447557
 C        -4.2383060518       -2.3104454964       -4.2698026452
 H        -7.5615556949        1.1784956827        1.7211841105
 H        -6.5823326176        1.1237079026        3.1164141369
 H        -6.1959282319        2.1978568529        1.7326128945
 H        -6.4469305344       -2.2281494510        4.3683549451
 H        -6.2114539619       -3.8136780031        3.6785716970
 H        -7.6280739945       -0.9396748668        3.2416303047
 H        -7.8667461929       -2.4823240954        2.3912510866
 H        -8.2779337192       -0.8657849176        1.5809400482
 H        -6.4700052909       -2.9694794795        0.2725780282
 H        -7.0245294856       -1.3638003419       -0.3575280856
 H        -5.2888313067       -1.8174485751       -0.2472471315
 H        -4.6814384412       -3.9454004355        5.4061219538
 H        -3.7054061961       -3.4401147489        4.1648590868
 H        -2.4801546940        0.4846513656        5.2633944390
 H        -0.9955420204        0.4985572198        6.3534728031
 H        -3.7420562489       -1.4264340596        8.7491389961
 H        -4.0278619391       -0.1868123203        7.4889584927
 H        -2.3096184589       -0.3980240931        8.1265407040
 H        -2.5021163515       -3.9890920935        6.1587740047
 H        -1.4539918683       -3.4593698522        7.4153541502
 H        -3.1693942786       -3.8486188600        7.7966978193
 H         0.4216273843        0.3067978177        4.5586032926
 H        -0.7277227184        1.2547790594        3.8247733670
 H         2.2516463050        0.9267335006        0.9195922452
 H         1.9974832366        0.3688321130       -0.6492343517
 H         2.6715926454       -1.1383564423        2.3718903034
 H         1.8705258767       -0.9234450505        3.8523310117
 H         2.0490137237        0.4265313369        2.7241997025
 H         0.9857765512       -2.8090860448        1.2504093643
 H         0.3547813060       -3.0422265680        2.8361170151
 H        -0.7181377319       -2.8478394826        1.4907000994
 H         1.4796681782        2.9544639166       -0.3258771093
 H         0.3708737591        2.1126914882       -1.1236017432
 H        -0.0874537844        6.3360960244       -0.8789984322
 H        -0.0775325960        7.1531466671        0.6132833185
 H        -0.4311569678        4.0935099565       -1.5995204073
 H        -1.9162849575        4.9098333179       -1.1832650225
 H        -2.0419631828        3.1834445720       -1.0138760064
 H        -2.6809398165        3.5823125328        1.9375584521
 H        -1.4427056555        4.6020752112        2.5971276755
 H        -2.3715155325        5.2311690283        1.2566559693
 H         2.5372230418        6.6064308269        0.5915455333
 H         1.8848635412        7.6756836802       -0.7227812007
 H         3.4069122875        3.3568248768       -2.6542859250
 H         4.7702092065        3.6597183223       -3.7476373767
 H         2.6499455882        7.1461906367       -3.9660528929
 H         2.4135844629        5.4066686790       -3.9746388530
 H         3.8455682069        6.0771989922       -4.5863232319
 H         4.6528805555        7.5237701665       -0.9350960841
 H         5.0088386733        7.7076433424       -2.6198160121
 H         3.4902027605        8.1149910047       -2.1260662289
 H         6.3430983122        2.9509888826       -1.9231301876
 H         5.1220070327        2.4982959316       -0.8220526497
 H         3.2802272437       -1.0778144832       -3.6111867775
 H         4.4346982273       -2.5796066813       -3.5614821498
 H         7.3898828641       -1.3013652911       -3.3637692289
 H         7.3058627535        0.4230693368       -3.7529676068
 H         6.0685923634       -0.6124419571       -4.3029387524
 H         7.0006358339       -0.9505480717       -0.4818777176
 H         7.5496514394        0.5436495660       -1.3472741584
 H         6.1789898372        0.5833102049       -0.2174905605
 H         1.7950660899       -2.3433067114       -2.8923273211
 H         2.6115036634       -2.7346480466       -1.3172589500
 H         0.5407517428       -4.1070137798       -4.5482515223
 H        -0.2727037367       -5.7895321495       -4.3976166528
 H         2.6500795648       -7.2634550150       -2.5691860785
 H         1.7405576516       -6.7350861908       -4.0531174561
 H         0.8731362743       -7.2472145993       -2.5640750238
 H         3.0992985166       -5.3453001654       -0.6432150713
 H         1.6904578570       -4.2984669187       -0.3468536643
 H         1.4625897662       -6.0645441704       -0.4221006742
 H        -2.1881150538       -4.2215737974       -5.0440312008
 H        -2.2805211368       -4.3003655796       -3.3177424975
 H        -1.5189611338        0.7490940257       -3.4670752917
 H        -2.3731589663        1.2983163636       -1.8452085222
 H        -1.0433653327        0.0932522406       -2.0434028465
 H        -1.9160584790       -1.1011099028       -5.8208327429
 H        -2.3902404936        0.3723793538       -5.0261009714
 H        -3.6534525941       -0.5058686570       -5.7959732349
 H        -5.0544424284       -1.6681040933       -4.5588996660
 H        -4.1527672199       -3.0967903697       -5.1456452382
 H        -4.5424573200       -2.8801584601       -3.4228564195
 Na       -2.6793583168       -1.1303134113        0.4827485291
