155

 C        -6.5200747652        1.1466492519        2.2139344943
 C        -5.7633642368        0.1170214689        1.5141499800
 C        -6.3079525500       -1.3527540076        1.6126182557
 C        -5.3259119356       -2.3468715564        2.3605762780
 C        -5.7101856475       -2.9900619465        3.6958507900
 C        -7.7120933956       -1.4527690668        2.1584599145
 C        -6.3307323715       -1.9671418751        0.1779823132
 O        -4.7270089518        0.4178776283        0.9669242054
 O        -4.2146146962       -2.5618300317        1.8430096532
 C        -4.4384256285       -3.2565702521        4.6188699534
 C        -4.1858028649       -2.2597988987        5.7662171428
 C        -2.9318089001       -2.3137697263        6.5314529894
 C        -1.9651667262       -1.7010839897        5.6047820459
 C        -2.1668060445       -0.3182945247        5.1918541187
 O        -5.0308585704       -1.4111957373        6.0054085309
 O        -1.0526733080       -2.3299818709        5.0053407498
 C        -3.0578006634       -1.5936458627        7.9442519591
 C        -2.3584792251       -3.7634248074        6.8048613921
 C        -0.8810022070        0.2297838287        4.5460407630
 C        -0.8477851528       -0.3502714168        3.1555409969
 C         0.4366888671       -0.8287114357        2.4112002309
 C         0.3228037169       -0.1532851541        0.9437935173
 C         1.4735619077        0.8200240607        0.4000262027
 C         1.7212369480       -0.4377673367        3.2687121889
 C         0.3035771605       -2.3892005013        2.2571727783
 O        -1.8931659361       -0.6312469329        2.5757395989
 O        -0.6864945905       -0.5109434224        0.3531098629
 C         0.7877338234        2.0206076909       -0.3853644079
 C        -0.2858984357        2.5852863101        0.5248443185
 C        -0.7419377888        4.0862133839        0.5363565095
 C         0.5554769323        4.9859159714        0.5238264342
 C         0.3804713010        6.5036016000       -0.0193454288
 O        -0.7331952011        1.8628816324        1.4520065345
 O         1.5200113553        4.6931207626        1.1634297722
 C        -1.6753892222        4.3008681151       -0.6357024099
 C        -1.3895721760        4.4187432443        1.8862164407
 C         1.7465420120        7.0075296850       -0.6137046508
 C         2.3233586496        5.9615796345       -1.4985713030
 C         3.6872380664        6.1541255256       -2.4018977844
 C         4.6888496639        5.0115756497       -1.9956275473
 C         4.5275119407        3.5809614455       -2.5993070441
 C         3.0009039016        5.9419912590       -3.8030951195
 C         4.3661368092        7.5477953404       -2.3705567543
 O         1.7579414710        4.8623613332       -1.5993672743
 O         5.6400988637        5.3158440977       -1.2683213578
 C         5.2076014658        2.3857575524       -1.9141590489
 C         5.2316905647        1.1334518635       -2.8731728218
 C         5.9437384029       -0.1761673372       -2.1951778868
 C         4.7810592021       -1.1746186300       -1.8975189067
 C         3.9601232498       -1.6204899129       -3.0142875348
 O         4.7115281254        1.1279072129       -3.9608618893
 O         4.6328525778       -1.5445564016       -0.7357715323
 C         6.8204681833       -0.7234874556       -3.3047512327
 C         6.7909615385        0.0792458391       -0.9279709089
 C         2.7347430312       -2.3800356073       -2.5243148505
 C         2.9075223061       -3.8898310358       -2.8962619352
 C         1.9063648735       -4.9815887574       -2.1918711456
 C         0.5121323088       -4.4186501796       -2.4786446336
 C        -0.0730573055       -4.5739999912       -3.8833584779
 C         2.0642221491       -6.2857479983       -2.8471750567
 C         2.0784613323       -5.0286230810       -0.6003226799
 O         3.7825417140       -4.3155396745       -3.6289429113
 O        -0.2065810822       -4.1057504273       -1.5369312669
 C        -1.5097631408       -3.9979387697       -4.0323849266
 C        -1.4568850529       -2.5331714656       -3.9592646160
 C        -2.8444541178       -1.6366841651       -4.2079081210
 C        -2.9124760834       -0.8748268516       -2.8268095801
 C        -2.1378606839        0.4243513978       -2.8418314669
 O        -0.3909567838       -1.9130729445       -3.7721570985
 O        -3.5738185758       -1.2768515844       -1.8259127314
 C        -2.8341966031       -0.7191020958       -5.5565747220
 C        -4.0471880108       -2.6509681242       -4.3593936048
 H        -6.9703471231        1.8580798234        1.4603099906
 H        -7.3298671221        0.8188706616        2.8882765619
 H        -5.8317152963        1.7466299036        2.7501815737
 H        -6.4340529689       -2.5022324783        4.3674451945
 H        -6.1330081799       -3.9913195104        3.4306825438
 H        -7.7968894632       -1.2424742930        3.1876327134
 H        -8.1666600121       -2.4194695080        1.8880457076
 H        -8.3408564263       -0.7590067381        1.5765703684
 H        -6.7721996937       -2.9169037462        0.2477408107
 H        -6.9604918667       -1.4534701194       -0.5171817486
 H        -5.2654448142       -2.1477659129       -0.1807059278
 H        -4.4379372118       -4.1585030439        5.1119196674
 H        -3.5586134829       -3.2797629458        4.0483862210
 H        -2.9988340137       -0.2194371106        4.5173351679
 H        -2.5471381551        0.2350406486        6.1370821754
 H        -3.9883583313       -1.7097917972        8.3990006626
 H        -3.0810689578       -0.4800682691        8.0363840175
 H        -2.2622293747       -1.9774661865        8.6346304959
 H        -1.8959203367       -4.2530695062        5.9243734983
 H        -1.6849165347       -3.6501858665        7.6533247749
 H        -3.0792012378       -4.5261682368        7.0226356339
 H         0.0810592286       -0.0233158246        5.0139150395
 H        -0.9140118648        1.3529605544        4.6193372748
 H         1.9849893318        1.2144910821        1.3013350017
 H         2.3024654911        0.4067677676       -0.2009415487
 H         2.6020234275       -0.6365806810        2.7317017526
 H         1.9155693263       -1.0633628939        4.1753548600
 H         1.6496081954        0.6155927064        3.6165038835
 H         1.1496129025       -2.7643965852        1.8122890926
 H         0.2583050919       -3.0323107788        3.0583110122
 H        -0.4949044422       -2.5497570921        1.4668202379
 H         1.3885829450        2.7275358337       -0.9089390022
 H         0.1481798882        1.6119768188       -1.1690005707
 H        -0.3758623961        6.6886338391       -0.7997577286
 H         0.1302618362        7.1322646977        0.8252937753
 H        -1.1171400087        4.3646129957       -1.6220334613
 H        -2.1126714819        5.2527978280       -0.6168798577
 H        -2.3680407197        3.4518523560       -0.6726839094
 H        -2.3542660540        3.8750386841        2.1122196371
 H        -0.6467847675        4.2928847543        2.7213312547
 H        -1.6774689238        5.4994160999        1.9605929909
 H         2.3594989521        7.2188226478        0.3009151356
 H         1.5752159916        7.8801341214       -1.2394485437
 H         3.4944286312        3.4460081454       -2.5634978804
 H         4.8597362699        3.6575668569       -3.6560774654
 H         2.2112769802        6.6915183359       -3.9882406151
 H         2.5389424991        5.0421518691       -3.7482977429
 H         3.6819817527        5.9036242429       -4.6602282094
 H         4.6900974760        7.6868256731       -1.3230391242
 H         5.1542405482        7.7369249007       -3.1303169981
 H         3.5829935169        8.3444479136       -2.5327076357
 H         6.1741343513        2.5910292542       -1.5980497667
 H         4.7289256017        2.1047432283       -0.9200638405
 H         3.6437967779       -0.8379390173       -3.8410191341
 H         4.6156562318       -2.4281674021       -3.4994544371
 H         7.1690219115       -1.7354872279       -3.1126940336
 H         7.7056411894       -0.2048463342       -3.5162955646
 H         6.3425493897       -0.7854140985       -4.2099276187
 H         7.3042624861       -0.8177811367       -0.7126870375
 H         7.3693181756        0.9522833514       -1.1206565456
 H         6.2596984119        0.1728516597       -0.0381581961
 H         1.7255999112       -2.0599412538       -2.8617641980
 H         2.6941389921       -2.2418897196       -1.4210812831
 H         0.6364460195       -4.0562523977       -4.6079570323
 H        -0.0656453943       -5.6689701338       -4.2012857260
 H         3.1121713819       -6.5716106242       -2.8926034662
 H         1.6781472140       -6.1949381342       -3.9273050899
 H         1.4137485221       -7.1417989497       -2.4783470064
 H         3.1076691424       -5.3486292849       -0.3744122155
 H         1.7384529918       -4.0599144226       -0.2029359502
 H         1.3261358947       -5.6487285428       -0.1655447979
 H        -1.9843836918       -4.5314883119       -4.8608879237
 H        -2.1204721185       -4.2608140937       -3.1519863236
 H        -1.2872283223        0.1887771015       -2.1291410431
 H        -1.6841596837        0.7175099257       -3.8318934815
 H        -2.6017541934        1.1888663035       -2.3499794597
 H        -3.5838165628       -1.1872167887       -6.2274544477
 H        -1.8475079350       -0.5662606182       -6.0095950195
 H        -3.2543652926        0.3187108585       -5.3330200429
 H        -4.9576761583       -2.1649674667       -4.1767169416
 H        -4.1723330361       -3.1335007181       -5.3953435269
 H        -4.0898817889       -3.5406847580       -3.7242140735
 Na       -2.9675688513       -0.9806482272        0.3777684071
