155

 C        -7.8077786871        0.3823022858        1.8058622009
 C        -6.6811780998       -0.4551740634        1.2407011062
 C        -6.8384104679       -1.9759139605        0.9926669346
 C        -5.7647983613       -2.7694540592        1.7872616562
 C        -6.2335506937       -3.7926211882        2.9310662568
 C        -8.3242953865       -2.4980964129        1.4026684731
 C        -6.7541457183       -2.2012776946       -0.5463315221
 O        -5.6106064067        0.0549623336        0.9977543325
 O        -4.5684735049       -2.6838900719        1.5826159167
 C        -5.1979311382       -4.7414331308        3.6064722673
 C        -4.9439042734       -4.0516370540        5.0150250990
 C        -3.6004930060       -4.0366052839        5.8025040385
 C        -2.5150070444       -3.1837503583        5.0031670218
 C        -2.0429517466       -1.9143694186        5.6794226567
 O        -5.8378874028       -3.4489131673        5.5587607916
 O        -2.1508493255       -3.6462180902        3.9094710002
 C        -3.8335203962       -3.5967866834        7.3093720689
 C        -2.9110263674       -5.4501044678        5.8255571880
 C        -1.1273602579       -0.9835747917        4.9358200711
 C        -1.5690087728       -0.7581652619        3.4250639511
 C        -0.5282727229       -0.8478382134        2.2279753354
 C        -0.6565711527        0.4774315553        1.3811920768
 C         0.1595540001        1.7010771127        1.8161553343
 C         0.9104970455       -0.9444474068        2.8158550094
 C        -0.7625494731       -2.0520810816        1.2939429470
 O        -2.7257138834       -0.5122252597        3.1183101530
 O        -1.5670005346        0.5684827162        0.5798746991
 C        -0.2470383707        2.9339951631        0.9833878070
 C        -0.2104647058        4.2409376578        1.7516660435
 C        -0.4265034453        5.5722779493        0.8663353633
 C         1.0555091844        5.8343742081        0.4467028050
 C         1.4252380898        7.3206412419       -0.0039776606
 O        -0.1455944478        4.2539461079        2.9501932718
 O         1.8987255905        4.9748631524        0.4930873255
 C        -1.1855260368        5.2456625334       -0.4403862862
 C        -1.2380169537        6.6931803731        1.6456311104
 C         2.7528410884        7.4491314912       -0.7791826938
 C         2.6955393269        6.7178204815       -2.1173486306
 C         3.8476561664        6.7219413619       -3.1692838240
 C         4.6780968142        5.4977508472       -2.5533562998
 C         4.5175547949        4.1221123670       -3.1933820103
 C         3.4626621793        6.4340602174       -4.6324526548
 C         4.6710499863        8.0629853643       -3.0078894111
 O         1.7820935161        5.9442913635       -2.2577847950
 O         5.2508270324        5.5347431762       -1.4603726291
 C         5.0233847286        3.0055237537       -2.2803851244
 C         5.8871335485        1.8642582384       -2.8604422015
 C         5.9859966438        0.6181133050       -1.9733809836
 C         4.6227420774       -0.2447377872       -2.1275653546
 C         4.3954023367       -1.0666592516       -3.4307322772
 O         6.3445755903        1.8777171608       -4.0085838175
 O         3.6905264157       -0.1782113799       -1.3464434881
 C         7.2086518782       -0.2636058626       -2.4254026945
 C         6.1425032545        0.9887208695       -0.4917719963
 C         3.3160986282       -2.2046237733       -3.2334569279
 C         3.7732039406       -3.4604814094       -2.5472657887
 C         2.9097205711       -4.1278544272       -1.4140952985
 C         1.3679433686       -4.1841343287       -1.8201862083
 C         0.6646607446       -5.3071257947       -2.6338333510
 C         3.6043729819       -5.5399243437       -1.1292330202
 C         3.0914830196       -3.2662906178       -0.1076267887
 O         4.8556175044       -3.9925577608       -2.8345066021
 O         0.7227782994       -3.1925080740       -1.4962537373
 C        -0.8053059034       -4.8787914503       -2.8237050775
 C        -0.8875643493       -3.6542658209       -3.7604801771
 C        -2.2285734809       -2.8554352422       -3.6279053235
 C        -2.1218765144       -1.7775832008       -2.3213315254
 C        -0.9306787958       -0.8867186904       -2.4424317210
 O         0.0305916520       -3.2890088878       -4.4375896614
 O        -2.8975462403       -1.9362418236       -1.4178421053
 C        -2.3546441969       -1.9662119305       -4.9321068779
 C        -3.4852907143       -3.7739480848       -3.5210058424
 H        -8.7815548650        0.0013421440        1.4267881690
 H        -7.9404601118        0.3098608721        2.9128100710
 H        -7.6430787027        1.3920665945        1.5401984491
 H        -6.7931373581       -3.2545361467        3.7252055477
 H        -7.1086797754       -4.3960797764        2.5314773451
 H        -8.5836689167       -2.0873755039        2.4096714281
 H        -8.4726891699       -3.5902518434        1.4542579864
 H        -9.0269973141       -2.0078873647        0.7142466614
 H        -7.1214278487       -3.1608039719       -0.8454223522
 H        -7.2449281427       -1.3985747355       -1.0318650683
 H        -5.6751909952       -2.1752263426       -0.8615954343
 H        -5.6824955946       -5.6221686274        3.7953426986
 H        -4.3357814340       -4.9256198237        3.0710381426
 H        -3.0719507469       -1.4429326906        5.9774596853
 H        -1.5936990170       -2.2100401672        6.6008874224
 H        -4.5431135091       -4.2413265705        7.6621677131
 H        -3.8869398073       -2.5396740676        7.5641731114
 H        -2.9341968704       -3.8139624714        7.9334649595
 H        -1.9605219498       -5.2902052548        6.3044363056
 H        -3.4651730943       -6.2029319912        6.4815615917
 H        -2.8383422507       -5.9094755868        4.8481280166
 H        -0.1061643610       -1.1901709897        5.0371345072
 H        -1.2160235144       -0.0109885778        5.4371158571
 H        -0.0043399825        1.9007254131        2.9125783436
 H         1.2140239345        1.4841111077        1.9769898901
 H         1.6217537701       -0.8636493579        1.9350520102
 H         1.0394269865       -1.9149920076        3.2556664138
 H         1.1727485300       -0.2067817059        3.6237831802
 H        -0.3843393797       -2.1543420997        0.2819983097
 H        -0.3012397352       -2.8794468980        1.8237482268
 H        -1.7824104630       -2.4488103421        1.1718363773
 H         0.3578417519        2.9132140537        0.0880661443
 H        -1.2473415293        2.8312965575        0.5860821028
 H         0.6610958772        7.5510253432       -0.7707640795
 H         1.3283353579        8.0169795466        0.8102007212
 H        -0.6123307244        4.4808288972       -0.9629422775
 H        -1.4055050650        6.1323669428       -1.0368414429
 H        -2.1721087710        4.9029020838       -0.2265069205
 H        -2.2655198249        6.4250361930        1.7238163504
 H        -0.9267081668        6.8554047915        2.6822597111
 H        -1.1179524450        7.6191356219        0.9925298659
 H         3.6824363662        7.0413852140       -0.3870263165
 H         3.0019323628        8.4553076301       -1.1030706038
 H         3.4152401078        4.1255703365       -3.2217768279
 H         4.7950510889        4.1354592577       -4.1826978055
 H         3.2335108415        7.4203208364       -5.0417552055
 H         2.6434144137        5.8089177978       -4.6869078159
 H         4.2896416825        6.1100215388       -5.3001008724
 H         5.1023119938        8.1697583467       -2.0556298919
 H         5.4828069305        8.0587602675       -3.8185249633
 H         4.0391678347        8.9846222785       -3.3395724892
 H         5.6048403673        3.5772617820       -1.4730573873
 H         4.2250855374        2.5069840162       -1.7293689656
 H         4.0431464947       -0.2133211907       -4.0151896881
 H         5.3420937818       -1.5100146573       -3.8231798049
 H         7.4434754020       -0.9915395779       -1.6901856490
 H         7.9908336901        0.4144600012       -2.5799476099
 H         7.0088984275       -0.8055373159       -3.3335556898
 H         6.7803147864        0.2559764631        0.1211408151
 H         6.6781334306        1.9224272693       -0.2878064672
 H         5.0885788447        1.0471096549       -0.1980178805
 H         3.1350394361       -2.5813365234       -4.2591984943
 H         2.4598639825       -1.7154042116       -2.8013901839
 H         1.2476220308       -5.3451692944       -3.6075825082
 H         0.8990537460       -6.2756253405       -2.0832738703
 H         4.5507534328       -5.3682957826       -0.7572347637
 H         3.7292139521       -6.0627589245       -2.0439644990
 H         3.1166468190       -6.1884602377       -0.4475159865
 H         4.0707889351       -3.6094585033        0.1617431380
 H         3.1900953601       -2.2196347183       -0.3171201256
 H         2.3739540809       -3.5735213240        0.6616302901
 H        -1.4666920311       -5.6478355663       -3.2516012400
 H        -1.2823972021       -4.5677336600       -1.9311603110
 H        -0.3132457481       -1.1879415426       -1.5973493724
 H        -0.4361322529       -0.7934210188       -3.4244570270
 H        -1.3756555984        0.0638578900       -2.3663816686
 H        -3.3622400677       -1.5319782953       -5.0398546258
 H        -2.0256243038       -2.6409440909       -5.7489286073
 H        -1.6531076353       -1.1865544027       -4.9397030738
 H        -4.3591013177       -3.2314445155       -3.8997773688
 H        -3.2542502387       -4.6918724982       -4.1796506507
 H        -3.6401370075       -4.0012314198       -2.4702790018
 Na       -3.3710812351       -0.7965544100        0.6990387270
