155

 C        -7.8397149620       -0.1591085673        1.1684013713
 C        -6.5949619791       -0.9756966751        0.7080957445
 C        -6.7875319051       -2.3857495465        0.0058430879
 C        -5.8338831446       -3.3493678863        0.7927886805
 C        -6.3862808856       -4.5777260319        1.5014100511
 C        -8.2566222717       -2.7478353906       -0.0377833715
 C        -6.2235422141       -2.5319395398       -1.4310229828
 O        -5.4533496139       -0.5144993776        0.8111586897
 O        -4.6512948767       -3.1929466532        0.8774285074
 C        -5.3229257563       -5.0968189566        2.4750444594
 C        -5.1775263428       -4.3023797759        3.7513945066
 C        -4.3053221020       -4.8603432242        5.0071903475
 C        -3.0938046079       -3.8396419031        5.1442978580
 C        -3.2897091108       -2.3326689649        5.3019953990
 O        -5.7688799629       -3.2390833884        3.8642549986
 O        -2.0186943790       -4.2520330365        5.0517667513
 C        -5.2730694253       -4.8540379891        6.2660360020
 C        -3.7280156096       -6.3342107261        4.7884446436
 C        -1.8466099828       -1.5982074243        5.0457757493
 C        -1.7019278115       -1.2506281118        3.5353551504
 C        -0.4807020020       -0.5903993346        2.9237890435
 C        -1.0007397169        0.7389060126        2.1460772348
 C        -0.3775694653        2.0733530759        2.4729994259
 C         0.5849211045       -0.2335645723        3.9691434688
 C         0.0847003783       -1.6314920376        1.8087773213
 O        -2.5782827490       -1.6982948362        2.8034145817
 O        -1.8126408039        0.6560456683        1.2523665011
 C        -0.7752141205        3.0985420865        1.2752217612
 C        -0.2918185704        4.4976114749        1.6408286666
 C        -0.2992131648        5.6231754811        0.6226306365
 C         1.2630084161        5.6688773491        0.1459036474
 C         1.9221432008        7.0129776050        0.1486816517
 O         0.0502643707        4.7713010626        2.7774386186
 O         1.9376809889        4.6958000973       -0.1158092324
 C        -1.0714429933        5.3393580544       -0.7070230281
 C        -0.8733529621        6.9069165929        1.2813799065
 C         3.0929769916        7.0761111565       -0.8890453682
 C         2.7652240104        7.6020920741       -2.2464823416
 C         4.0551487281        7.6246886501       -3.2550299623
 C         4.9590211105        6.4458700550       -2.9371379649
 C         4.5459789303        5.0248646071       -3.3817294932
 C         3.4496977890        7.5748969691       -4.6890353431
 C         4.8506430522        8.9344507726       -2.9443703966
 O         1.6302490054        7.8319075203       -2.5726532902
 O         5.9383406257        6.4956766278       -2.1958454924
 C         5.1944000780        3.8698090121       -2.5189931164
 C         4.6686251933        2.5084693381       -2.6419136450
 C         5.6592807085        1.3270184443       -2.1899298828
 C         4.7538214383        0.1867160123       -1.5324490522
 C         3.6769723342       -0.4846006891       -2.3409760600
 O         3.5508311071        2.2690321353       -3.1635891834
 O         4.8885676646       -0.0206628757       -0.3438100994
 C         6.2862598472        0.8968736190       -3.5800612851
 C         6.7943547607        1.8201407717       -1.2799599571
 C         3.1073337164       -1.6714148904       -1.4763782924
 C         3.7028255152       -2.9782433774       -1.8086565351
 C         3.4632315517       -4.1669503644       -0.7205814435
 C         1.9402028868       -4.3458247861       -0.8262313882
 C         1.5494292665       -5.2731590821       -1.9229609163
 C         4.2303735066       -5.3662097181       -1.1264737727
 C         3.8472423393       -3.7122657860        0.7585362005
 O         4.2479032728       -3.2230076766       -2.8338191542
 O         1.0975524377       -3.8499130346       -0.0949321407
 C        -0.0065478237       -5.2587774383       -2.1263763919
 C        -0.3105460085       -4.0146322929       -2.9860105814
 C        -1.7966384347       -3.5391429782       -3.0850198289
 C        -1.9090576197       -2.3404303892       -2.0782562284
 C        -1.1832747251       -1.0385165413       -2.4524978308
 O         0.6246990118       -3.4449263874       -3.4221966505
 O        -2.5997426648       -2.6100343753       -1.0860657500
 C        -2.0308741502       -2.9728427415       -4.5153557492
 C        -2.9132367420       -4.6121370231       -2.7724136312
 H        -7.6638279984        0.7202205148        1.7406381093
 H        -8.4316904107        0.0596495097        0.2672854256
 H        -8.5909972537       -0.7420662274        1.7348384990
 H        -7.2695946203       -4.2531422866        2.0413449505
 H        -6.7512804755       -5.4115322329        0.8318325613
 H        -8.6559468613       -2.5478264647        0.9585470254
 H        -8.3722906649       -3.8108464701       -0.2902428817
 H        -8.8218115715       -2.2158285391       -0.8136197325
 H        -5.9822214262       -3.5345751285       -1.7752342977
 H        -7.0314534321       -2.1284485938       -2.0836148652
 H        -5.2731497051       -2.0829293411       -1.4951864783
 H        -5.4443816293       -6.2038953650        2.8374253211
 H        -4.3147003562       -5.2279530934        1.8518307950
 H        -3.8802639509       -1.9844487154        4.5525947185
 H        -3.7316539385       -1.9424880701        6.2380979311
 H        -6.1356709762       -5.4728063386        6.0097005168
 H        -5.6125537786       -3.8440859215        6.2709419324
 H        -4.6792707272       -4.8161125303        7.1469576156
 H        -4.4921217177       -7.0263309290        5.0720031286
 H        -3.2567044749       -6.3921076695        3.8156580436
 H        -2.8482182336       -6.4944855818        5.4612500952
 H        -1.0861819166       -2.2965640052        5.4460983249
 H        -1.9853301089       -0.7084189717        5.6739085352
 H        -0.9246115340        2.5135628498        3.3571508758
 H         0.7021506635        2.0002875116        2.5033985313
 H         1.5743776311        0.1525232281        3.5200529083
 H         0.8100476044       -1.0476158896        4.6592332620
 H         0.2430183742        0.5814962599        4.5898285151
 H         0.5507344598       -0.9317258406        1.0907884482
 H         0.7646648150       -2.3516142630        2.2533312426
 H        -0.7161597368       -2.1641927952        1.1745385510
 H        -0.2762370967        2.7446236044        0.3689028950
 H        -1.8280781227        3.0353948861        1.0864948232
 H         1.2867738573        7.8425835248       -0.0688377834
 H         2.2173477095        7.2529547123        1.1704881153
 H        -0.7657299321        4.3959968607       -1.1290332134
 H        -0.5745180785        6.0074588625       -1.4581166112
 H        -2.2291385082        5.4386890063       -0.6885436093
 H        -1.8945583572        6.6242822663        1.5317516680
 H        -0.3624299235        7.2948644603        2.1858635136
 H        -0.8994966173        7.7450164117        0.5492150946
 H         3.6582249277        6.0886466225       -0.9224826474
 H         3.8661603989        7.6931639214       -0.3264771599
 H         3.4280971555        5.0008779717       -3.4557312672
 H         4.8615388242        4.7897089457       -4.3872472777
 H         4.0617220871        7.9391424947       -5.4503793511
 H         2.5965513528        8.1979774952       -4.6286333526
 H         3.1151985833        6.5660765739       -5.0339265361
 H         5.0593909805        9.0358877680       -1.9181849431
 H         5.7970463995        9.1707611825       -3.5504824769
 H         4.0745147724        9.7777575851       -3.1086152677
 H         6.3067863795        3.7524147669       -2.7972759866
 H         5.2970916077        4.1372080475       -1.4924485829
 H         2.8969816705        0.1445838768       -2.6761582314
 H         4.0120458697       -0.8168181982       -3.3655042857
 H         7.2264765589        0.3062981728       -3.5326138968
 H         6.4641567725        1.7892757306       -4.2280029604
 H         5.5416351802        0.3003309038       -4.1221812499
 H         7.6940561697        1.3547018993       -1.5790052942
 H         6.9994959757        2.8875789848       -1.1938674760
 H         6.6270090927        1.4312718909       -0.2582436362
 H         1.9662523509       -1.8520825984       -1.6333910016
 H         3.3228210217       -1.3752858049       -0.3901088272
 H         1.9090586585       -4.9714673988       -2.8949526477
 H         1.7462586890       -6.3399526306       -1.7444600093
 H         5.2729507045       -5.2698306621       -0.9351293199
 H         3.9402581887       -5.7004280462       -2.1105766023
 H         3.8942412340       -6.2096153974       -0.4774683910
 H         4.9162178575       -3.6715525910        0.9916952654
 H         3.5299980180       -2.7060875919        1.0867607580
 H         3.4791134441       -4.5126348264        1.3782170997
 H        -0.4360785172       -6.1598162416       -2.5347133599
 H        -0.5083737683       -5.2206312927       -1.1662543247
 H        -1.3955069438       -0.5723149057       -3.3356175686
 H        -1.3069127650       -0.2805902728       -1.6387851527
 H        -0.1523562663       -1.4612151568       -2.4268671447
 H        -1.1311997902       -2.8085352130       -5.0734153257
 H        -2.4951263193       -2.0253654007       -4.4559808232
 H        -2.6700416621       -3.5589915316       -5.1747053741
 H        -2.4268605699       -5.5935477845       -3.1488714798
 H        -2.9381005199       -4.8178890323       -1.6884252817
 H        -3.8455034570       -4.3473535121       -3.1589773357
 Na       -3.1661834822       -1.1613601108        0.7054473147
