155

 C        -7.3866833649       -0.6194460134        1.6131810780
 C        -6.2434907936       -1.0780276717        0.6669959633
 C        -6.4338368785       -2.3204137348       -0.2144878939
 C        -5.6665163025       -3.5280357190        0.4475282518
 C        -6.5420614385       -4.5903938746        1.2088600893
 C        -7.9551129814       -2.4902845520       -0.4472329037
 C        -5.7497189368       -2.0769664011       -1.5935262172
 O        -5.2126231569       -0.4106187079        0.6366328075
 O        -4.4580645009       -3.5643276605        0.4302208289
 C        -5.7839676303       -5.2208803302        2.4004328211
 C        -5.5500238194       -4.1610816336        3.5733642146
 C        -4.7089612266       -4.6425712374        4.8404348455
 C        -3.3378170126       -3.8013858628        4.8003532804
 C        -3.5258386613       -2.3713395750        5.1061354035
 O        -6.0187323662       -3.0550628209        3.5068039547
 O        -2.1675162743       -4.2235810480        4.5666875746
 C        -5.4998218804       -4.2087556946        6.1613475985
 C        -4.2791319066       -6.1047365233        4.6591135093
 C        -2.2250596668       -1.5602523750        4.8269485808
 C        -2.0036287305       -1.2823187128        3.3554914022
 C        -0.7265791832       -0.4929869516        2.8224940019
 C        -1.3069679320        0.8314635816        2.1818152812
 C        -1.0827111282        2.1478402422        2.9124031953
 C         0.2902791020       -0.2734118669        4.0567325959
 C         0.0407600563       -1.3747289850        1.8167012987
 O        -2.8878399593       -1.4865583677        2.5386192857
 O        -1.9949484205        0.8300330899        1.1449544845
 C        -1.5447456059        3.3877982425        2.2601305644
 C        -0.3428029555        4.0210116935        1.5346371753
 C        -0.5575081744        4.8463115504        0.3200593356
 C         0.8696695583        5.3882303695       -0.1677878685
 C         1.4488169243        6.5762554668        0.5092948048
 O         0.7296448345        3.9907291366        2.0896992078
 O         1.5215509119        4.6677156974       -0.8914664761
 C        -1.1339653903        4.0668495564       -0.8240851312
 C        -1.5178609991        6.0283095578        0.6274358214
 C         2.7369430767        7.1572523268       -0.1907533802
 C         2.3695725671        7.5835742444       -1.6341795836
 C         3.5719268526        7.8032866309       -2.5942694343
 C         4.5523520970        6.5026113974       -2.7517070636
 C         3.9188630336        5.0509464100       -2.4910417461
 C         3.0841147728        8.0267895360       -4.1024825009
 C         4.4093384940        9.0569047094       -2.1000303271
 O         1.1685941329        7.8069118842       -1.9615852298
 O         5.7277124223        6.7078561554       -2.9250030790
 C         5.0291530641        3.9870663735       -2.5600660828
 C         4.4458680559        2.5911172276       -2.6678304197
 C         5.3595314099        1.3303554134       -2.7141649366
 C         4.9044801495        0.4140935231       -1.4246944202
 C         3.5049434325       -0.1853181371       -1.3448338893
 O         3.2966887674        2.2955460076       -2.6333335273
 O         5.6543426920        0.2922328683       -0.4738827973
 C         5.1186494595        0.5245976044       -3.9241931732
 C         6.8440106429        1.6512203881       -2.5204715170
 C         3.3595872712       -1.5135135926       -0.4723964598
 C         4.2138534283       -2.6844638509       -1.0022372495
 C         3.8110290672       -4.0137483243       -0.1746414036
 C         2.3824011170       -4.3716075299       -0.6865421328
 C         2.3101466040       -5.2776531644       -1.9082822634
 C         4.8273381030       -5.1871406276       -0.5583702865
 C         3.8092149903       -3.6659048069        1.2901369515
 O         5.0358188384       -2.6203804144       -1.8805444019
 O         1.3855001913       -3.7987528628       -0.2600244488
 C         0.8115516487       -5.3108987067       -2.3842590279
 C         0.5565711552       -4.0186553529       -3.0477185987
 C        -0.9258545054       -3.6170993828       -3.3255620704
 C        -1.3690020340       -2.4180755388       -2.3488443055
 C        -0.6171931721       -1.1785167226       -2.4735142065
 O         1.4214166299       -3.2642916906       -3.4858775172
 O        -2.3360333554       -2.5072034349       -1.6025835884
 C        -1.0403550113       -3.1273030546       -4.8052942661
 C        -1.9675278767       -4.7616426227       -3.0504461561
 H        -8.2643931524       -0.0529996409        1.1885237206
 H        -7.9107605616       -1.4242583542        2.1452598981
 H        -6.9496573479        0.0658157987        2.2918269183
 H        -7.3869444173       -4.1387222610        1.6681805372
 H        -6.9891325806       -5.2769822443        0.4675573479
 H        -8.5036087121       -2.9910819371        0.4094541047
 H        -8.1822148076       -2.9703951589       -1.3868264771
 H        -8.3915644897       -1.4844763288       -0.5845295294
 H        -6.2229811574       -2.7627188166       -2.2798047502
 H        -5.7855156650       -1.0770101631       -1.9780100178
 H        -4.6350501857       -2.2710778231       -1.5374158909
 H        -6.3752451123       -5.9654907780        2.8616488164
 H        -4.8552810922       -5.5026599117        2.0358295488
 H        -4.3792978698       -1.8332965529        4.6495051492
 H        -3.6139127723       -2.3164474466        6.1620845386
 H        -6.2142294324       -4.9956254642        6.3178351028
 H        -6.0451938269       -3.2324527489        5.9798082300
 H        -4.9384510587       -4.3250124941        7.1339660837
 H        -5.1333863228       -6.7851866492        4.6746988322
 H        -3.8537553542       -6.3543254828        3.6874855606
 H        -3.5200696337       -6.4964534813        5.3056909059
 H        -1.3765394474       -1.9676536114        5.3752748177
 H        -2.2462751338       -0.6472084269        5.4428749248
 H        -1.7297427164        1.8891636698        3.7879086942
 H        -0.1972103346        2.3171750325        3.4819267074
 H         1.1463633015        0.2498495545        3.7723009428
 H         0.5567306052       -1.2887989761        4.3991603681
 H        -0.2340041166        0.2981454679        4.8743083613
 H         0.6815485965       -0.7445344511        1.2734635070
 H         0.6616680948       -2.0379517130        2.3667235618
 H        -0.6717174910       -1.7441691240        1.1555127733
 H        -2.4282414746        3.1477758168        1.6255749111
 H        -1.9761947463        3.9311207991        3.1193572570
 H         0.8270387074        7.4509669510        0.4752235482
 H         1.8458409794        6.3596225624        1.5465798515
 H        -0.2726482018        3.6192676700       -1.3894439820
 H        -1.7058631691        4.7688887725       -1.4501729116
 H        -1.8771861791        3.3616175734       -0.5009615309
 H        -2.5344092756        5.6359931214        0.7687985154
 H        -1.2838221902        6.5173604301        1.6082990379
 H        -1.4543656858        6.8107506353       -0.1327851441
 H         3.5175137512        6.4002339449       -0.1202815438
 H         3.0380298301        7.9910869476        0.4160225137
 H         3.4324298107        4.9768065420       -1.5178192545
 H         3.1791925665        4.7869877209       -3.2657585276
 H         3.7918970875        8.7453476352       -4.5555629726
 H         2.0274887217        8.3677754699       -4.0832981777
 H         3.1348931708        7.1358076816       -4.6354643323
 H         4.7354119864        8.6958732804       -1.0564738205
 H         5.3220202280        9.0683815026       -2.6638807995
 H         3.9034021959        9.9834704378       -2.1649502965
 H         5.4669635080        4.2679088055       -3.5866228871
 H         5.7894470504        4.0944247259       -1.8343991953
 H         2.8119406126        0.5091163824       -0.9007432178
 H         3.1216887399       -0.4071948110       -2.3599226845
 H         5.3628190275       -0.5004307260       -3.8389012420
 H         5.5213030575        0.9566876196       -4.7741165829
 H         4.0627535164        0.4544812124       -4.0869699747
 H         7.1817690139        2.2392116145       -3.4477344699
 H         6.9015516076        2.2182441450       -1.5769337362
 H         7.4562492087        0.7442803431       -2.3805698121
 H         2.2980462252       -1.6630808358       -0.3582055134
 H         3.7843993286       -1.1509636703        0.4102390314
 H         2.9755408857       -5.0158247989       -2.7353027129
 H         2.6377055081       -6.3176817285       -1.6860942435
 H         5.6942852851       -5.2335425179       -0.0006376125
 H         4.9819804432       -5.0984032225       -1.5790653254
 H         4.3972964818       -6.1011262009       -0.3578334761
 H         4.7651431194       -3.2362247246        1.5314730628
 H         3.0226014498       -3.0850593909        1.7276987047
 H         3.7165122636       -4.5197838405        1.9350781616
 H         0.7708411467       -6.0923562907       -3.1455726878
 H         0.0391607844       -5.5693852432       -1.6091317643
 H        -1.1329724682       -0.5076826535       -3.2594723569
 H        -0.3417856938       -0.6000911256       -1.5663951850
 H         0.3942616743       -1.3570886006       -2.8519855247
 H        -0.5364171985       -2.1711535886       -4.9045220358
 H        -2.0503666854       -2.9983552781       -5.1442813197
 H        -0.3951609516       -3.6942349611       -5.4205791872
 H        -1.7611182217       -5.6356077428       -3.5210441909
 H        -2.2424147277       -4.8413559774       -1.9893771350
 H        -2.9130115199       -4.5623406616       -3.5806255074
 Na       -3.1387226890       -1.2543884202        0.4715048815
