155

 C        -7.0727752529       -0.5321668054        1.6786066448
 C        -6.0969487049       -0.7682242679        0.5977499538
 C        -6.2347673422       -2.0896019989       -0.2794167174
 C        -5.4750236769       -3.3074458445        0.4858345756
 C        -6.2439633085       -4.5220109376        1.0108536095
 C        -7.7303227926       -2.5078968769       -0.3671408227
 C        -5.6495977167       -1.9459692401       -1.6881948203
 O        -5.0550187145       -0.1269608917        0.4880527168
 O        -4.2605290650       -3.3364745495        0.5451180710
 C        -5.7012571776       -5.0579726187        2.3304760643
 C        -5.7679922552       -4.0581012142        3.4781088612
 C        -4.9671993213       -4.6480829704        4.8103637057
 C        -3.5483230522       -3.9648783934        4.7605559309
 C        -3.5392720279       -2.5007997783        5.1906422491
 O        -6.3028655796       -2.9228499740        3.3986119752
 O        -2.6367426982       -4.5000522204        4.0736041289
 C        -5.7237020845       -4.2253391723        6.0753063021
 C        -4.7621906522       -6.1346689187        4.7969897145
 C        -2.2372361808       -1.7730237391        4.9238007921
 C        -2.0791909301       -1.4715879929        3.4111735928
 C        -0.8321221817       -0.7272884282        2.7785030374
 C        -1.5233638084        0.5375904825        2.0323170289
 C        -1.9403875587        1.7903755187        2.8718834836
 C         0.0253059676       -0.1914634185        3.9430320951
 C        -0.0245922293       -1.5721089979        1.7641796530
 O        -3.0279281503       -1.7136903335        2.6709261638
 O        -1.7412458269        0.4753951075        0.8448165718
 C        -2.1734021257        3.0644861968        2.0874967812
 C        -0.8317163570        3.4918723177        1.4054021672
 C        -0.8546107543        4.6500265676        0.3326716435
 C         0.7204148404        5.2337208576        0.1122493477
 C         1.1012118341        6.6187664655        0.4942106953
 O         0.1741855119        2.9072941222        1.6880387512
 O         1.4216868247        4.4799158300       -0.5227548678
 C        -1.2418095425        3.9121968075       -1.0109531054
 C        -1.8196657808        5.7413050230        0.6228355473
 C         2.4863387247        7.0517587573       -0.1342869790
 C         2.1954125151        7.5408500412       -1.6776264146
 C         3.5982954679        7.8300564216       -2.4866171167
 C         4.4373849967        6.4405094223       -2.4046248328
 C         3.8696107792        5.1571129184       -3.0805290690
 C         2.9940074200        8.2399548462       -3.9045211662
 C         4.4046297074        8.9485297645       -1.8876761119
 O         1.0593708260        7.6413882218       -2.1312372479
 O         5.5316606110        6.4331968504       -1.9166126786
 C         4.8779205140        4.0158034333       -2.8613562811
 C         4.2493706634        2.5831553991       -2.9803651764
 C         5.2645086392        1.3483116585       -3.0251213456
 C         5.0661287243        0.7063693447       -1.4966894521
 C         3.7578936031       -0.0722509977       -1.1495799579
 O         3.0548617744        2.4305631403       -3.0144881357
 O         6.0244666499        0.8694469249       -0.7709833015
 C         4.9043040300        0.3596062176       -4.1295364285
 C         6.7487857305        1.7370802912       -3.1908089594
 C         3.9555943053       -1.2003613182       -0.0696619904
 C         4.5525695184       -2.4749895542       -0.6074874920
 C         4.0188818250       -3.8596084010        0.1687375452
 C         2.5884508197       -4.1331653226       -0.5393774175
 C         2.6067663165       -5.0724481072       -1.8339337049
 C         4.9748457571       -5.0183262553       -0.0622972993
 C         3.7680164183       -3.7822325265        1.7297097087
 O         5.2998749575       -2.5354300743       -1.5562032890
 O         1.5766529468       -3.5856867706       -0.1823460096
 C         1.2016986047       -5.1255607590       -2.3655258122
 C         0.8555488807       -3.7710825768       -3.0725161657
 C        -0.6279057259       -3.3805545162       -3.4020247891
 C        -1.0882909644       -2.3139192790       -2.3380834047
 C        -0.4092035316       -0.8678928565       -2.2339476007
 O         1.7357242221       -2.9370060821       -3.2904476948
 O        -1.7665466712       -2.5983533560       -1.3550866394
 C        -0.5454229051       -2.7968610625       -4.7844450451
 C        -1.5516704695       -4.6153317005       -3.4095746427
 H        -7.8503167042        0.1913565972        1.4175140082
 H        -7.6602782864       -1.4553983077        1.9748014942
 H        -6.5584990437       -0.1508741524        2.5449182535
 H        -7.2828562381       -4.3526847690        1.1919521025
 H        -6.1441335326       -5.2553890228        0.2489215981
 H        -8.1817285449       -2.9099013548        0.5466879043
 H        -7.8134467561       -3.3550989026       -1.0914215725
 H        -8.4607040562       -1.7686146617       -0.7295787888
 H        -5.7621139939       -2.8381009511       -2.2235061328
 H        -6.3034745511       -1.2870110257       -2.1877700835
 H        -4.5206530987       -1.8435708765       -1.8403383331
 H        -6.2056768951       -6.1073369437        2.4582732443
 H        -4.5623159030       -5.0295841708        2.1488053942
 H        -4.2366002293       -1.9519574945        4.6997511688
 H        -3.7645181809       -2.4723254613        6.2948055095
 H        -6.5908448762       -4.8013266313        6.0950701762
 H        -6.1506118220       -3.2370540767        6.0373761308
 H        -5.0624658760       -4.1017102722        6.9356895898
 H        -3.9296638476       -6.4016376637        4.2182601571
 H        -4.6996589499       -6.5670463484        5.7951273840
 H        -5.5823644591       -6.8050535256        4.4788964485
 H        -1.3782055771       -2.4285288666        5.2616214985
 H        -2.0903459130       -0.8815629510        5.5778741121
 H        -2.8559367863        1.4432102959        3.3581833216
 H        -1.3488537563        1.9262243380        3.8110294456
 H         0.8045327782        0.5349358608        3.5728319707
 H         0.4291933145       -0.9351161113        4.5401467812
 H        -0.5904406832        0.3312770693        4.6389099301
 H         0.8642255043       -1.9830727847        2.2560802283
 H        -0.6505186003       -2.3500354335        1.3626004998
 H         0.3473504735       -0.8985190854        1.0730083773
 H        -2.8160004126        2.7699189819        1.2631752242
 H        -2.7461434460        3.7050831457        2.7428826969
 H         0.3175371582        7.3468606689        0.2018373260
 H         1.2937313603        6.8379235828        1.5101586552
 H        -0.4688631714        3.2460613443       -1.2556575213
 H        -1.2853474379        4.6327296443       -1.8127398511
 H        -2.2185034611        3.3743929832       -0.8585686595
 H        -2.7185678069        5.3077029535        0.6754121517
 H        -1.5944567401        6.3408269784        1.4957985599
 H        -1.8747207336        6.4459981133       -0.2512556988
 H         3.2001436792        6.2292924944       -0.2150784688
 H         3.0297092889        7.9495442763        0.2541914208
 H         2.9601860144        4.8237134699       -2.6003248754
 H         3.7438929996        5.3827565602       -4.1170586940
 H         3.7990511639        8.0362455655       -4.7431951558
 H         2.7081934320        9.2619189227       -3.8563620601
 H         2.1867110198        7.5315370961       -4.1565555004
 H         4.7475071124        8.6359652622       -0.8787643201
 H         5.1900119448        9.0869474998       -2.5298695299
 H         3.8277947215        9.7760345543       -1.7785500592
 H         5.7380945441        4.1756409453       -3.4639676264
 H         5.2678406670        4.2699872495       -1.8163728630
 H         3.1000178334        0.7058199356       -0.8112671024
 H         3.1837103372       -0.4882764598       -1.9657575706
 H         5.3092601292       -0.6005254270       -3.9882129207
 H         5.3755770069        0.6150036946       -5.0358033629
 H         3.7909426520        0.3247796000       -4.3463186596
 H         6.9425010538        2.6609130501       -3.7659508281
 H         7.2151689073        1.8418683971       -2.1998926693
 H         7.1249617507        0.8644432772       -3.7977095603
 H         3.0090829799       -1.2675181675        0.5168879486
 H         4.6186156396       -0.7813830604        0.7887313795
 H         3.3067952380       -4.4899990765       -2.5003548659
 H         3.1677963709       -6.0061520357       -1.6009959622
 H         5.7399828703       -4.9662203999        0.6837999903
 H         5.5357170273       -4.9702004127       -0.9685269799
 H         4.4150290178       -5.9013154188       -0.1092631249
 H         4.5932153356       -3.4306785759        2.3106705624
 H         3.0041936403       -3.0840550343        2.0316308290
 H         3.6207000715       -4.7497800180        2.1252461355
 H         1.0888750311       -5.9774840260       -3.0817373613
 H         0.5554318930       -5.2046407829       -1.5003791162
 H        -1.0584392513       -0.2429527919       -1.5481641213
 H         0.3807076758       -0.9581177251       -1.5059800724
 H        -0.0433745140       -0.2666756064       -3.0613669739
 H         0.2655625286       -2.0188374741       -4.9348987172
 H        -1.4788656634       -2.2208342371       -4.9997018015
 H        -0.5786816885       -3.5948679104       -5.5167901366
 H        -1.0398227494       -5.4654070409       -3.8997934047
 H        -1.6259440031       -5.1787874803       -2.4271482682
 H        -2.4987416922       -4.4210824644       -3.8151571487
 Na       -2.9694013742       -1.3910510672        0.4283653156
