155

 C        -7.0765595441        0.1919666325        0.7877144076
 C        -6.0411352916       -0.8502402265        0.4931929209
 C        -6.4016378314       -2.1487909365       -0.2915257898
 C        -5.5788699346       -3.3878830966        0.3356327611
 C        -6.3542762583       -4.5949471754        0.8343210448
 C        -7.9784320425       -2.4480212747       -0.3546565253
 C        -5.9519034501       -2.0018008815       -1.7496898481
 O        -4.8468733734       -0.5631986877        0.7538264191
 O        -4.3878137238       -3.5243215583        0.2597449534
 C        -5.7276752647       -4.9861358389        2.1865212931
 C        -6.0829138529       -4.1418865897        3.4607466048
 C        -5.3906936498       -4.7093069897        4.7712080887
 C        -3.8834832111       -4.0850735184        4.6559900331
 C        -3.6293638536       -2.5480530483        5.0798147331
 O        -6.6725751397       -3.1171279161        3.3668840392
 O        -3.0160066107       -4.7555137146        4.2594076790
 C        -6.1361861866       -4.2195384364        5.9771451827
 C        -5.2639713106       -6.2991777404        4.7822696960
 C        -2.1525170504       -2.1329762976        4.8792699545
 C        -1.9706599382       -1.6746920333        3.4343904525
 C        -0.7954692970       -0.6683483619        3.0038880381
 C        -1.5289002965        0.4412352097        2.1856223391
 C        -1.9875204358        1.7661313873        2.8520907642
 C        -0.0365769875       -0.1722061227        4.1963767175
 C         0.1187806346       -1.6266616854        2.1430246502
 O        -2.6714444198       -2.2461760655        2.6240287803
 O        -1.7643723508        0.2400320430        1.0111486629
 C        -2.2404682858        2.8590157699        1.8626671213
 C        -0.9566664346        3.2294790572        0.9685455936
 C        -1.0056110050        4.4715881558       -0.0477981870
 C         0.4026711238        5.1013188820        0.1094269142
 C         0.5176374764        6.5278704340        0.7097898786
 O        -0.0113845248        2.4662542399        0.9354969936
 O         1.3609214086        4.5140552821       -0.3512487249
 C        -1.2297292019        3.7549740760       -1.4103845068
 C        -2.2317390930        5.3594869605        0.1541805451
 C         1.8458001147        7.1951694850        0.2685663236
 C         2.0355310266        7.1574320028       -1.3018918031
 C         3.3655841180        7.3925690085       -2.0140430011
 C         4.1715198251        6.0565324114       -1.8243063972
 C         3.6658487787        4.8229794395       -2.4705517923
 C         3.0382089427        7.4371640560       -3.5889479125
 C         4.1134101960        8.5497352437       -1.4106873961
 O         1.0486370313        6.8860326401       -1.9733793092
 O         5.1776398495        6.0259497005       -1.1526013312
 C         4.7505843944        3.8460374906       -2.8552570157
 C         4.2356008377        2.5251684553       -3.4651828656
 C         5.2651533519        1.2352741057       -3.3893169508
 C         5.1988948192        0.7532653487       -1.9916134018
 C         3.9800777452       -0.0020475793       -1.4716623769
 O         3.1164299979        2.3806125469       -3.8822673201
 O         6.0909438611        1.0938153358       -1.2294375197
 C         4.6958134559        0.2030513102       -4.3699166693
 C         6.6629912100        1.6971512594       -3.7278089670
 C         4.2360927624       -0.6748563443       -0.0861841123
 C         4.8129198548       -2.0336693216       -0.3030176066
 C         4.3164555618       -3.2487722560        0.5687844710
 C         2.9512747577       -3.6037082266       -0.1116142247
 C         2.9879228951       -4.3963161015       -1.5466538870
 C         5.3829886843       -4.3493502006        0.4351862007
 C         4.0884235430       -2.8588280944        2.0362747003
 O         5.4926579901       -2.2478727246       -1.2838904860
 O         1.9060012040       -3.1190889675        0.2929181531
 C         1.6543107981       -4.4800515946       -2.3064934649
 C         1.4635348298       -3.1455130780       -2.9764228396
 C        -0.0795694818       -2.9394256851       -3.4519210958
 C        -0.7163019865       -2.1340466614       -2.2274086248
 C        -0.2155517487       -0.7739332161       -1.7305641602
 O         2.3142292042       -2.3090495958       -3.0823423805
 O        -1.8364138665       -2.4482832177       -1.8456288289
 C        -0.0305964726       -2.0480969015       -4.7544188032
 C        -0.8682282962       -4.2452950122       -3.6864506868
 H        -7.1154949322        0.7809307723       -0.1483992687
 H        -8.0557239309       -0.1323391740        1.0891375835
 H        -6.8158348149        0.8117009448        1.5994149544
 H        -7.4022299415       -4.5264145964        1.0262934040
 H        -6.2504690585       -5.4043382138        0.0728192863
 H        -8.4631878274       -2.6058209318        0.6277458008
 H        -8.1271828270       -3.3182043502       -0.9381382177
 H        -8.5415154377       -1.6754902237       -0.8248484419
 H        -6.3341599933       -2.9270490255       -2.2313994711
 H        -6.3388617801       -1.1149175802       -2.3091289862
 H        -4.9014509423       -1.8468634078       -1.8525130027
 H        -6.0103704264       -6.0447596854        2.3617657415
 H        -4.6597906098       -5.1374161543        2.1950177175
 H        -4.2606646297       -1.9157104199        4.4642482438
 H        -3.9660621541       -2.4460049578        6.0797694870
 H        -6.8452878712       -4.8651369144        6.4068383743
 H        -6.6395639330       -3.2469374291        5.7738985375
 H        -5.5533094539       -4.1863491216        6.9191875869
 H        -4.4728386567       -6.6768216433        5.4283647893
 H        -6.2887928739       -6.6515324996        5.1019823183
 H        -5.0726786178       -6.8119511506        3.8291930840
 H        -1.4047184361       -2.9120175310        4.9831303817
 H        -1.9717739724       -1.1989692085        5.4515346718
 H        -2.8954801709        1.6454548347        3.4348712971
 H        -1.1641310476        2.0991373507        3.4880202095
 H         0.8173192825        0.4020315304        3.9908925036
 H         0.4178782327       -1.0380841037        4.7557166823
 H        -0.5686908387        0.4728440578        4.9954367930
 H         0.9451849644       -1.8842299535        2.7695035395
 H        -0.4049348721       -2.5008510829        1.6775565405
 H         0.3346400879       -1.1123771143        1.2065392864
 H        -3.0660177543        2.7484266604        1.1098947036
 H        -2.4524957782        3.7884604839        2.4272858748
 H        -0.4024576864        7.1548167157        0.5505402466
 H         0.5910157170        6.5733592228        1.8219303178
 H        -0.2851727035        3.3278441881       -1.8049276572
 H        -1.6032438861        4.5227755110       -2.0686936680
 H        -2.0176034012        3.0176146293       -1.3721886522
 H        -3.1217430832        4.6632679401        0.0635252699
 H        -2.3249248908        5.7864978181        1.1954824134
 H        -2.2580301561        6.1744422524       -0.5561695636
 H         2.6803856640        6.6477288151        0.6642720311
 H         1.9623754467        8.2551876031        0.4748580983
 H         2.9954486596        4.2883341880       -1.7742030437
 H         3.0013402912        4.8933467117       -3.3424085413
 H         2.8183208484        8.4300581949       -3.8718890394
 H         2.2275041776        6.7780096128       -3.9420141922
 H         3.8607968515        7.1141492848       -4.1040192759
 H         4.1984903719        8.4131682952       -0.3336134055
 H         5.2213725820        8.6293351559       -1.7226436371
 H         3.5932026954        9.5491927842       -1.6905613861
 H         5.4166270555        4.2954089261       -3.5823872190
 H         5.4420375454        3.5627701371       -2.0208432974
 H         3.1796709425        0.7305178229       -1.5300370891
 H         3.7666323933       -0.8164698215       -2.2177855409
 H         5.1592364570       -0.7689179681       -4.0607943811
 H         4.9428737360        0.5052633527       -5.3727938766
 H         3.6266877716        0.0416731356       -4.3063740671
 H         6.5378887882        2.6618472909       -4.1951993569
 H         7.2813726873        1.7302839832       -2.8899193981
 H         7.1698150701        1.0743126228       -4.4268993776
 H         3.5749326979       -0.5675818631        0.6981406456
 H         5.0322554273       -0.0826135369        0.3312885652
 H         3.5910129997       -3.7625823632       -2.2015491284
 H         3.5203920518       -5.3025184519       -1.2306811999
 H         6.1515483310       -4.5420907220        1.1594138806
 H         5.6379094492       -4.2758214068       -0.6303661156
 H         4.8184544939       -5.3032928402        0.4914827942
 H         5.0838538793       -2.6838767431        2.4825057662
 H         3.4001275385       -1.9923432725        2.2331161976
 H         3.5338978917       -3.6303480480        2.5739883814
 H         1.7793908409       -5.1702787603       -3.1727759927
 H         0.7791689533       -4.7874944835       -1.7254481887
 H         0.8716416352       -0.6997545255       -1.8783375150
 H        -0.3419556803        0.0414306733       -2.4166040608
 H        -0.5894665312       -0.4982176241       -0.7118131776
 H         0.7270573211       -1.2834431689       -4.7270924828
 H        -1.0097427552       -1.7085044087       -5.0483844658
 H         0.3160260828       -2.7638594940       -5.4980887659
 H        -0.2455423553       -4.9567844368       -4.1121747904
 H        -1.3377126514       -4.6503301904       -2.7663668160
 H        -1.6975141485       -4.2729376954       -4.4100364017
 Na       -2.7701638023       -1.7690907353        0.2367343307
