155

 C        -7.2646107524       -0.1777269526        0.8118587956
 C        -6.2244627342       -0.9412185933        0.0058832045
 C        -6.5069601374       -2.2808295011       -0.5967689124
 C        -5.9825916794       -3.3986685634        0.3271492680
 C        -6.8477319783       -4.4799994265        0.8857918908
 C        -8.0368241554       -2.4642184186       -0.8279097411
 C        -5.8196596174       -2.3375683177       -1.9255174783
 O        -5.0660422635       -0.6281292663        0.1588579718
 O        -4.7572980358       -3.5211218345        0.4689448802
 C        -6.2291618451       -5.1213796651        2.1176426328
 C        -6.1465024519       -4.2508442860        3.3280674586
 C        -5.5217150389       -4.7863173508        4.6210818360
 C        -4.0537097981       -4.2686501779        4.6996476430
 C        -3.8017437544       -2.6806697469        4.8640336591
 O        -6.5510573946       -3.0877635026        3.2110485384
 O        -3.1488856333       -4.9855538382        4.5473791309
 C        -6.2878682257       -4.1312424888        5.8100636902
 C        -5.4308864226       -6.3657214738        4.7263948260
 C        -2.4851805874       -2.1386855321        4.9204089612
 C        -2.0177790762       -2.0075855446        3.4521464593
 C        -0.9111471271       -0.8585057689        3.2226786587
 C        -1.5666964190        0.3024733060        2.3464156825
 C        -1.6265632879        1.7435307683        3.0226014659
 C        -0.1651648596       -0.4129498791        4.4398625617
 C        -0.0236185377       -1.6433618829        2.2169124096
 O        -2.5693374461       -2.6712308849        2.5688042221
 O        -2.2562983243        0.0054415842        1.3722019687
 C        -1.9434420428        2.8953240489        2.1939488722
 C        -1.1696149585        2.7786621072        0.8110422547
 C        -1.0374646225        4.1077149515       -0.1940752246
 C         0.2117283895        5.0427904094        0.2043114196
 C         0.0075686538        6.5138580395        0.5009900053
 O        -0.3594903551        1.9218364764        0.5524399184
 O         1.3610199360        4.6409117896        0.2983822675
 C        -0.8024250263        3.5895472153       -1.6065504946
 C        -2.3689384456        4.9089867550       -0.0974335196
 C         1.2437248258        7.3253637094        0.1626671335
 C         1.7447220990        7.0147397201       -1.2933961886
 C         3.2563379807        7.2804183460       -1.7730109439
 C         4.0444809483        5.8964122256       -1.7474117302
 C         3.5575295883        4.7673731437       -2.6186250287
 C         3.3354042728        7.7878975285       -3.2070900736
 C         3.9125896348        8.4127999535       -0.8410702994
 O         0.8637092378        6.6106714393       -2.0616797428
 O         5.0636239235        5.7394842903       -1.1106099639
 C         4.6449374136        3.6735860299       -2.8361244085
 C         4.2815925872        2.5249266629       -3.7287140566
 C         5.2958804603        1.3377149999       -3.6833720789
 C         5.4659730552        0.8139257350       -2.1927116686
 C         4.0395033589        0.1601306559       -1.6601995528
 O         3.4011168647        2.5347655522       -4.5249877295
 O         6.5545997019        0.7046473572       -1.6224289149
 C         4.7362543633        0.1956164131       -4.5900978778
 C         6.6718713569        1.7645724784       -4.3317955337
 C         4.2804457433       -0.2155079248       -0.1423297173
 C         5.0940517904       -1.5961078131       -0.1554979771
 C         4.5504717095       -2.7806034169        0.7093843545
 C         3.1053620591       -3.2048737572       -0.0026130019
 C         3.1777076479       -4.3089398461       -1.2049480479
 C         5.5817282983       -3.9242689130        0.6761585542
 C         4.3066544730       -2.4259239478        2.1585327520
 O         6.0039729162       -1.8346010187       -0.9425821099
 O         2.0217689582       -2.8428353085        0.3631520721
 C         1.8747809496       -4.2029320425       -1.9347900127
 C         1.7859553862       -3.0037216861       -2.8709879076
 C         0.3568142621       -2.5701052747       -3.3342302964
 C        -0.4789157774       -1.8697741815       -2.0763443159
 C        -0.1882386620       -0.2714261501       -1.7549617714
 O         2.7203436362       -2.2316517592       -2.8942001297
 O        -1.3093417499       -2.4853513561       -1.4440759011
 C         0.6574259352       -1.3714541375       -4.3560917505
 C        -0.5122458275       -3.6450531670       -4.0034088562
 H        -8.2907740619       -0.5221416602        0.7968741294
 H        -6.9683659486       -0.3750422818        1.8918493874
 H        -7.2546774338        0.8749396410        0.6449293919
 H        -7.7622586497       -4.0141643199        1.2484126329
 H        -7.2094920797       -5.2242930409        0.2887474498
 H        -8.4851528919       -2.7552121339        0.0751612670
 H        -8.1348610538       -3.2850790399       -1.5553731783
 H        -8.5042799343       -1.6042722529       -1.2762897038
 H        -6.0424596033       -3.2900530205       -2.3770275655
 H        -6.2696321950       -1.5954922590       -2.5766666499
 H        -4.6817720125       -2.0527047632       -1.8419067034
 H        -6.6105744508       -6.1529865430        2.3644435351
 H        -5.1559965682       -5.5281644693        1.8793095953
 H        -4.3407344323       -2.2956929291        4.0406962368
 H        -4.5210824847       -2.3197850444        5.7201179130
 H        -7.0410823821       -4.7285320612        6.2950672378
 H        -6.9200694983       -3.2450906766        5.5768675797
 H        -5.4855219357       -3.7653022096        6.5285767250
 H        -5.1965591642       -6.7617125350        5.6670868194
 H        -6.3587908656       -6.8019585718        4.4434751074
 H        -4.5633585974       -6.5521075044        4.0081074207
 H        -1.6150755778       -2.6023244806        5.4358381490
 H        -2.6671821251       -1.1103150310        5.1997331493
 H        -2.5116975826        1.6185890304        3.6174902256
 H        -0.6713154323        1.8796902774        3.5308950198
 H         0.8182101920        0.0954737782        4.2269256780
 H         0.0328091246       -1.2107374446        5.1424044395
 H        -0.7660021174        0.2540377965        5.1072461664
 H         0.1648971468       -2.6045339123        2.6562340502
 H        -0.5284024562       -1.9619446058        1.3401191698
 H         0.9034869959       -1.2337990927        2.0955426221
 H        -2.9921875796        3.0204827104        2.0090617487
 H        -1.6298817847        3.8845971660        2.5394520138
 H        -0.8440196747        6.8077776553       -0.1097323979
 H        -0.3578120517        6.3838784317        1.5050824218
 H         0.0671792924        2.9839069496       -1.5152718786
 H        -0.3928388269        4.3679352173       -2.2448548816
 H        -1.6982475748        3.0425895516       -2.0416756587
 H        -3.1754840260        4.2938996531       -0.3041072907
 H        -2.4809479472        5.4664239541        0.8862961119
 H        -2.4601520888        5.6838451767       -0.9605175244
 H         1.9977274325        7.2745503668        0.9609850110
 H         0.9523203898        8.4120583057        0.0668013752
 H         2.5667577032        4.4062041388       -2.3367831285
 H         3.2931318768        5.2781985385       -3.5225895889
 H         3.1791656542        8.9185594589       -3.3306576527
 H         2.5154695949        7.3899408724       -3.7460027390
 H         4.2589945838        7.6512871822       -3.7271298945
 H         4.2189750160        8.0873972927        0.1953412552
 H         4.7383875273        8.8811418909       -1.3486219206
 H         3.2281064648        9.2393503451       -0.7289570947
 H         5.5782181739        4.1676104183       -3.1649126484
 H         4.8819843914        3.3258202236       -1.8099034855
 H         3.2524589445        0.9102202582       -1.6246900837
 H         3.8600225366       -0.6783082445       -2.2627922817
 H         5.3286503424       -0.6543272810       -4.4974544034
 H         4.7425526327        0.5419313591       -5.5625467347
 H         3.6723060491        0.0464477120       -4.2673854730
 H         6.8062756191        1.6475393820       -5.3528001821
 H         6.9832543379        2.7648608265       -4.1214903349
 H         7.3218817911        1.0580307029       -3.8615010176
 H         3.2605226260       -0.3455176037        0.3364188091
 H         4.8364133322        0.5869889094        0.4067524993
 H         4.0907547731       -3.9837229562       -1.8562214500
 H         3.2911951121       -5.3797275787       -0.8735040089
 H         6.4398014228       -3.4534609459        1.1108962411
 H         5.9549473144       -4.2483231906       -0.2686961784
 H         5.2387703428       -4.7460227687        1.2016876691
 H         5.1376523163       -2.2732600275        2.8911481783
 H         3.6260332575       -1.5582066702        2.0694363954
 H         3.7739136087       -3.3046275299        2.5910558477
 H         1.7005216427       -5.1840780888       -2.3914661880
 H         1.0122054258       -4.1950744056       -1.2346506657
 H         0.7643962865        0.3442940854       -2.0385985229
 H        -0.9239642873        0.2845260860       -2.3618788604
 H        -0.3793962635        0.1063987388       -0.7441318297
 H        -0.1327770859       -0.6053043560       -4.3794161850
 H         0.6056406812       -1.8311136462       -5.2908459820
 H         1.5438083466       -0.9334642230       -4.1178260287
 H         0.2443277771       -4.2801643604       -4.5122824432
 H        -1.2234473669       -4.2108736523       -3.2859889534
 H        -1.1201190106       -3.3186841777       -4.7837563895
 Na       -2.8478603583       -2.0707870297        0.3715320827
