155

 C        -7.0892126396       -0.3534682535        0.8568326629
 C        -6.1428245692       -1.0002749244       -0.0274454223
 C        -6.4756698857       -2.3852797834       -0.7566705282
 C        -5.8952348548       -3.5477177252        0.2099978818
 C        -6.8967880673       -4.4839556555        0.8317949618
 C        -7.9469857461       -2.6282469548       -1.0052603767
 C        -5.6987868784       -2.4241763946       -2.1023729264
 O        -4.9772545651       -0.6231288727        0.0298356971
 O        -4.8080865163       -3.4241305043        0.6853268920
 C        -6.4495671229       -5.2084551846        2.1312140860
 C        -6.2721378309       -4.2384679746        3.2435937877
 C        -5.6756929588       -4.8790059560        4.5159217620
 C        -4.2436737792       -4.1867683226        4.7892081099
 C        -4.0569246183       -2.6984853153        5.0868064404
 O        -6.5110365576       -3.0359181666        3.1135308985
 O        -3.2119761946       -4.8694845934        4.7642508967
 C        -6.4674048730       -4.4744580112        5.7857647499
 C        -5.6081588319       -6.5028352741        4.5383204646
 C        -2.5492637226       -2.2767853099        5.0162212544
 C        -2.0705971979       -2.0727594519        3.5047292116
 C        -0.9013808460       -0.9472858135        3.0998420096
 C        -1.6656804732        0.2157948745        2.3117272819
 C        -1.5047867369        1.5454418665        3.1001350486
 C         0.0089884341       -0.5891162618        4.3472382250
 C         0.0155757929       -1.6189623862        2.0998557081
 O        -2.6296640008       -2.6802357920        2.6426492452
 O        -2.4421931488        0.0273584133        1.3992685858
 C        -1.8126160463        2.8114601971        2.2065132083
 C        -1.0781103809        2.7868066168        0.7262129316
 C        -0.9862341773        4.0444996465       -0.1707446788
 C         0.1134129097        5.0026951955        0.1909409225
 C        -0.0280149441        6.5709147892        0.2354082997
 O        -0.6616821765        1.7029013863        0.3426930843
 O         1.1918335401        4.5633528789        0.4992152315
 C        -0.5500685292        3.5423445639       -1.5970614367
 C        -2.4183631432        4.6683284843       -0.2297483988
 C         1.2637845950        7.3168197611        0.0410156432
 C         1.7476668808        7.0065143695       -1.3863377337
 C         3.2175756201        7.3238284778       -1.7205665444
 C         3.9464840465        5.9651846081       -1.7241215865
 C         3.6496883480        4.8808467256       -2.8002741879
 C         3.1740349677        7.9364256142       -3.2388819143
 C         4.0646422703        8.2265943575       -0.7331135895
 O         1.0854843910        6.3230337884       -2.1279223489
 O         4.8426534062        5.7571161438       -0.9473887932
 C         4.6931952986        3.7216870131       -2.8192054053
 C         4.3172544117        2.5959755943       -3.7902871230
 C         5.2940922244        1.4067696292       -3.8214547060
 C         5.4747019625        0.8286918097       -2.3039087401
 C         4.1367158562        0.3614095316       -1.5488294396
 O         3.2920793331        2.6742699518       -4.4786255600
 O         6.5567995117        0.8763741412       -1.8172788669
 C         4.7072702492        0.2877602764       -4.7779318990
 C         6.6879831848        1.8106751592       -4.2418326080
 C         4.4821270273       -0.1323577996       -0.1609941023
 C         5.2535708038       -1.5381042995       -0.1550768804
 C         4.5597789476       -2.7351542865        0.7886153380
 C         3.2060482906       -3.1582484015        0.1752572081
 C         3.1616897909       -4.1859361524       -0.9745452281
 C         5.5925816210       -3.9635040980        0.6440624272
 C         4.2461805192       -2.1927893688        2.1829318301
 O         6.1104274348       -1.8093402259       -0.9491777667
 O         2.1427207420       -2.5702687845        0.4523553526
 C         1.8873519698       -4.1838221218       -1.8919021627
 C         1.7625866333       -2.8046920240       -2.5948983602
 C         0.3677251599       -2.2322907828       -3.1294092627
 C        -0.4924114415       -1.6767622408       -1.9244248605
 C        -0.2955985605       -0.2673068456       -1.5589919246
 O         2.7884487425       -2.2776934460       -2.9891359001
 O        -1.2545979099       -2.5139009730       -1.4219200442
 C         0.6592530675       -1.1923323819       -4.2381285556
 C        -0.2485559107       -3.5250066122       -3.7908396905
 H        -8.0357075749       -0.8275082229        1.1253316805
 H        -6.6004005431       -0.3743986948        1.8066783813
 H        -7.2839674151        0.7150244881        0.5436556495
 H        -7.9133497032       -4.0933559388        1.0192214675
 H        -7.0980224767       -5.4284164302        0.1793566386
 H        -8.6304581364       -2.2295089284       -0.2079042364
 H        -8.1269657482       -3.6796652239       -1.2411116270
 H        -8.1177406621       -2.0852280469       -1.9571853886
 H        -5.6826562516       -3.4114990911       -2.5799345869
 H        -6.1012288180       -1.7094606815       -2.8219810476
 H        -4.7050088647       -2.2191025737       -1.8091074967
 H        -7.1991476170       -5.9076889470        2.4279196528
 H        -5.6622014419       -5.8659062429        2.0222817530
 H        -4.8123061759       -2.2485953338        4.3845240639
 H        -4.5238579338       -2.6093195166        5.9721735817
 H        -7.4183967359       -5.0451512876        5.7308992072
 H        -6.8177755547       -3.4586404674        5.6787572807
 H        -5.9465677949       -4.4385542689        6.6762355070
 H        -4.9056934381       -6.6650661478        5.4327665054
 H        -6.5875909418       -6.8593440483        4.9439942651
 H        -5.3262407262       -6.9693315322        3.6115690568
 H        -1.8692322684       -3.0031329647        5.4419432845
 H        -2.3849638932       -1.2661827967        5.4311472652
 H        -2.3226034397        1.4305008375        3.8452818776
 H        -0.5093021938        1.6148749530        3.5183761753
 H         0.7166597211        0.1666640278        4.0092975228
 H         0.6718261417       -1.4182604070        4.5772901321
 H        -0.3780432604       -0.2201030358        5.2425519768
 H         0.9577233901       -2.0989926366        2.4167275914
 H        -0.4841785204       -2.3590136968        1.4863375274
 H         0.5404983103       -0.7774405396        1.5712100922
 H        -2.8695387044        2.9465824180        1.9367700087
 H        -1.5225557289        3.7328643413        2.6931041453
 H        -0.6885296347        6.8140616502       -0.5958527745
 H        -0.5714784941        6.6227467284        1.2233286288
 H         0.5253476061        3.1971391139       -1.5877175779
 H        -0.5279812699        4.3800131399       -2.3367777124
 H        -1.2316300997        2.7379689884       -1.8589966042
 H        -3.2162675517        3.9289154733       -0.5280450609
 H        -2.6589902118        5.0904177262        0.6858605878
 H        -2.4492224130        5.3901868334       -0.9824016777
 H         2.0145146787        6.9382511269        0.7677691827
 H         1.0559486901        8.3468086024        0.3672596466
 H         2.6271688922        4.6078389235       -2.4969286723
 H         3.5060254993        5.2910117699       -3.8478988240
 H         3.0883477031        9.0146553239       -3.2175462997
 H         2.2836468884        7.6291456476       -3.7997666731
 H         4.1102013984        7.7748015116       -3.8741823059
 H         3.8356467049        7.9630370994        0.3245015744
 H         5.1024754438        8.1476798242       -0.8705239379
 H         3.7528486317        9.2245087719       -0.7340795025
 H         5.5753373708        4.1883288884       -3.2760593452
 H         4.9937133179        3.4796516860       -1.8109156868
 H         3.4506712031        1.2191134512       -1.4891236430
 H         3.8038584384       -0.4687462053       -2.2655394133
 H         5.4474598794       -0.5121252463       -4.6438269624
 H         4.6913352536        0.5185931198       -5.8871176921
 H         3.7260098694        0.0974246731       -4.4406747347
 H         6.7549800653        2.5971607094       -5.0414646134
 H         7.1699405038        2.3319631482       -3.3828699373
 H         7.3176634357        0.9432558214       -4.4821910799
 H         3.6654384522       -0.1068590870        0.5739212874
 H         5.2975049078        0.5740600101        0.1553855208
 H         4.0012668717       -4.1046299203       -1.5842738746
 H         3.2849573166       -5.0669334270       -0.3703427504
 H         6.5996564883       -3.9264721532        1.0410918232
 H         5.7288298074       -4.0628022369       -0.4101127885
 H         5.0461128229       -4.8664209374        0.8958819602
 H         5.0945622968       -2.1436921786        2.8130087519
 H         3.7424860752       -1.2535756810        2.0760708438
 H         3.6269342766       -2.9109951108        2.6694069462
 H         1.7647710884       -5.0632741871       -2.5475497511
 H         0.9650032681       -4.2294009685       -1.3118923416
 H         0.7149838258       -0.2493797325       -1.3056655824
 H        -0.3813664868        0.4609992373       -2.3788090078
 H        -0.7366503461        0.1930476497       -0.7267970929
 H        -0.1695096623       -1.1844861993       -4.9296499561
 H         1.6214738277       -1.4357765922       -4.7804332941
 H         0.8092911565       -0.1693620722       -3.7007002515
 H         0.4763770601       -4.2326410483       -4.2745016520
 H        -0.7021691545       -4.0459360403       -2.9564260290
 H        -1.1126475713       -3.2686146495       -4.5227861766
 Na       -2.8857821725       -2.0157187691        0.3393108245
