155

 C        -7.2420463947       -0.6275493978       -0.3850863480
 C        -5.9379728737       -1.3544609548       -0.6221377333
 C        -6.1006550445       -2.7511058598       -1.4319288087
 C        -5.5812829410       -3.8500022945       -0.3655158658
 C        -6.5882424035       -4.8699990561        0.3625512680
 C        -7.5682467050       -3.0893790796       -1.8542569074
 C        -5.0100792871       -2.6655093401       -2.5535502717
 O        -4.8732100228       -0.9696094535       -0.1755154674
 O        -4.4190197775       -3.9985910593        0.0315226542
 C        -6.1165344087       -5.4846316377        1.7397609629
 C        -6.3537856957       -4.6070926824        2.9621071639
 C        -6.0013929768       -5.1859406926        4.3854109586
 C        -4.6419148067       -4.4228415324        4.6245417904
 C        -4.7372407436       -2.9270613432        5.2345775542
 O        -6.8229688669       -3.4787547106        2.8685151937
 O        -3.5677195315       -4.9540436630        4.4934978222
 C        -7.1937558772       -4.5497027020        5.3370424060
 C        -5.9949398083       -6.6749700588        4.5238637277
 C        -3.3433442958       -2.3104421064        5.2272992358
 C        -2.7426163876       -2.0762643784        3.8324485900
 C        -1.3384961734       -1.5287912028        3.6382973882
 C        -1.4678171014       -0.2329276810        2.6161278396
 C        -1.1952057114        1.2292986697        3.2426255849
 C        -0.5397550074       -1.1653343788        4.9925030374
 C        -0.4724270154       -2.5958657003        2.7828069860
 O        -3.3709651984       -2.3324417280        2.8391921104
 O        -1.8808444563       -0.3605978849        1.4795402877
 C        -1.7071712785        2.3595852684        2.2999367608
 C        -0.7458729370        2.5628691490        1.1513311783
 C        -0.8614928795        3.7610474816        0.0849970643
 C        -0.6675817140        5.1824799759        0.6471180101
 C        -0.3749724310        6.3583836320       -0.4834695430
 O         0.1774234060        1.8093641430        0.9318229316
 O        -0.7648553845        5.4523456379        1.8369790777
 C         0.0346263129        3.4341400306       -1.1732367852
 C        -2.3567950713        3.6782960418       -0.2912804836
 C         1.0693232390        6.8901418348       -0.3470450958
 C         1.7737466097        7.0943429205       -1.6142824836
 C         3.2015621167        7.7068154973       -1.7651562574
 C         4.0582209104        6.2300450994       -1.9134827487
 C         3.9516665737        5.5890230167       -3.2958794670
 C         3.2602566864        8.8077058820       -2.8479722988
 C         3.6935163176        8.3264570795       -0.4273895983
 O         1.2747348754        6.6218435381       -2.6530982356
 O         4.7747752993        5.9427332862       -0.9969201235
 C         5.0408443960        4.5430668778       -3.4861508095
 C         4.5098584377        3.1286402627       -3.5531380280
 C         5.4541676271        1.9145016942       -3.9129865536
 C         6.1122578071        1.2944428191       -2.6829534775
 C         5.5765662951       -0.0538361057       -2.1621142649
 O         3.3191980194        2.9938402363       -3.5456895898
 O         7.1556387947        1.7305042351       -2.2119012029
 C         4.6285487254        0.9269642750       -4.7806515861
 C         6.6222158466        2.3221384718       -4.8638173151
 C         5.9137681114       -0.2096023807       -0.6542899452
 C         5.6106249294       -1.7262710568       -0.3436326235
 C         4.9311626982       -2.1405526259        0.9736285592
 C         3.3965979087       -2.2999759288        0.5406313245
 C         3.1190451932       -3.4972937210       -0.3740458283
 C         5.3934365412       -3.3594170014        1.7389829350
 C         4.9179509617       -1.0237992209        2.0732416264
 O         6.0135256163       -2.5835842766       -1.0887679478
 O         2.4484763445       -1.6769762290        0.9221158657
 C         1.8120623643       -3.6309521929       -1.1480253014
 C         1.6223716886       -2.5925582685       -2.3523003353
 C         0.1377198152       -2.5666798558       -2.9541145752
 C        -0.7055753752       -1.9393912838       -1.7806695999
 C        -0.2866870357       -0.5754057749       -1.3905824200
 O         2.4735470600       -1.9253932658       -2.8547338096
 O        -1.6307662621       -2.5722831000       -1.2597917314
 C         0.2834828700       -1.6903265827       -4.2315817039
 C        -0.5367780940       -3.8636542725       -3.3227665810
 H        -7.0439183609        0.4030189970       -0.1413657096
 H        -8.0406930473       -0.6592013826       -1.1419971674
 H        -7.6656473006       -0.8940213705        0.5637376094
 H        -7.4204740126       -4.2499060199        0.5805714434
 H        -6.8918159622       -5.6907805477       -0.2157461890
 H        -8.2297900009       -2.9880914607       -1.0035755663
 H        -7.4984301238       -4.1912506449       -2.0163633245
 H        -7.9139169399       -2.5820377062       -2.7786923810
 H        -4.9034764606       -3.6409283565       -3.0556523202
 H        -5.2515962930       -1.9889010445       -3.3877824680
 H        -4.1401824889       -2.1454035929       -2.1116042647
 H        -6.7726389752       -6.3862626635        1.9025800231
 H        -4.9827897683       -5.6350511879        1.6578667309
 H        -5.3176452816       -2.1785798772        4.7320073896
 H        -4.9901419095       -2.9361776420        6.3628161173
 H        -7.9269313896       -4.0928939146        4.6804142166
 H        -6.9402164068       -3.6922664179        5.9996874750
 H        -7.5963066141       -5.4742493751        5.8060433245
 H        -5.4424790274       -6.8470694692        5.4208412298
 H        -7.0441790098       -6.8803750364        4.6797448236
 H        -5.5094879609       -7.0851136613        3.5831699612
 H        -2.6890399099       -2.9826442303        5.8106266403
 H        -3.2759683587       -1.3960172521        5.8458600328
 H        -1.7419207549        1.3015875174        4.1974751858
 H        -0.1594591803        1.2461327685        3.5521514210
 H         0.4538240169       -0.7573290385        4.7198247073
 H        -0.4962827285       -1.9628236337        5.7394281282
 H        -1.1680604403       -0.3347180003        5.4671311258
 H        -0.8072476795       -3.6091832698        3.0591032045
 H        -0.5669897513       -2.5080388262        1.6531654416
 H         0.5846832224       -2.3301974691        2.8047988758
 H        -2.7429805398        2.0562098016        2.0790261883
 H        -1.6875483959        3.3239561283        2.8359631819
 H        -0.5912039389        5.9762872269       -1.4804137827
 H        -0.9728642457        7.3013569161       -0.3531512045
 H         1.0063579852        3.6094925124       -0.8626179700
 H        -0.1044956828        4.0430714467       -2.0484847175
 H        -0.1372550856        2.4191795926       -1.5082814132
 H        -2.5577165713        2.7466477314       -0.7066872015
 H        -2.9982477860        3.8447862943        0.6082711010
 H        -2.6724548788        4.4399769012       -1.0778651309
 H         1.7300077843        6.1787397139        0.2296965823
 H         1.0375286355        7.7923373399        0.2652818737
 H         2.9701112971        5.1519409265       -3.3926119841
 H         4.1183546989        6.3584825151       -4.0867266960
 H         2.3523156466        9.4204501707       -2.7335290128
 H         3.2597500098        8.3419772990       -3.8706237346
 H         4.0224083897        9.4504444854       -2.6510347526
 H         3.8133202794        7.6632732426        0.3866703129
 H         4.6810013716        8.8684582686       -0.7231330027
 H         2.9983116739        9.2367897159       -0.2446215971
 H         5.6342212334        4.8628660397       -4.4124474153
 H         5.7535874889        4.6090808209       -2.6677164851
 H         4.5178405144        0.0330878212       -2.2370111779
 H         5.8325566818       -0.9157077702       -2.7830213200
 H         5.1907598877       -0.0185186259       -4.8548347267
 H         4.4899959146        1.3867477116       -5.7593215069
 H         3.5972158096        0.7571581725       -4.3263941586
 H         6.4949437109        2.4601084686       -5.9427835251
 H         7.2570349126        3.1744105878       -4.4334874067
 H         7.2989026657        1.4342042161       -4.8660276633
 H         5.2588905957        0.3146739771       -0.0222148610
 H         6.9271982250       -0.0051530641       -0.4271512832
 H         3.9609519397       -3.4865133381       -1.1266151372
 H         3.3034528554       -4.3803485600        0.3303339332
 H         6.4674071621       -3.2292919781        2.0172272037
 H         5.4249214297       -4.2594932271        1.0376885924
 H         4.6928289515       -3.5699010872        2.5687680605
 H         5.8572871035       -0.5386099326        2.2984479440
 H         4.2514941600       -0.3847555141        1.5473924555
 H         4.5265331778       -1.3461708126        3.0231275989
 H         1.6343869381       -4.5842767375       -1.6074099785
 H         1.0646373507       -3.3727810827       -0.4049713358
 H        -0.1486935313       -0.6429328561       -0.2516983559
 H         0.6598968795       -0.3034148262       -1.8164462195
 H        -0.9722238501        0.2814249010       -1.2641524454
 H        -0.5367545041       -1.9272986480       -4.9751782419
 H         1.1704983306       -2.0265028978       -4.7611968190
 H         0.2266708507       -0.7002780618       -3.9122003646
 H         0.0772503829       -4.3700959611       -4.0638204291
 H        -0.7937715844       -4.3306322864       -2.3399007031
 H        -1.4511462835       -3.7892354757       -3.7725113718
 Na       -2.9361686576       -2.2527337660        0.4671327521
