155

 C        -7.3547177887       -1.2977063458       -0.8499040903
 C        -5.9262016369       -1.7323844357       -1.0135102551
 C        -5.5383670366       -3.1464527790       -1.6209985787
 C        -5.1603158209       -4.0863343059       -0.3535883854
 C        -6.0274253798       -5.2327126614        0.1022722009
 C        -6.6776213567       -3.8428997526       -2.4936036478
 C        -4.2649178115       -3.0318236624       -2.5074809931
 O        -5.0144967782       -1.0080496747       -0.7157447269
 O        -4.2946808340       -3.6070952088        0.3367136224
 C        -5.7175687176       -5.7160345417        1.5033303886
 C        -6.7178339510       -4.9538829293        2.4882000354
 C        -6.4607982658       -5.1667955321        4.0668729246
 C        -5.0709823150       -4.3316972358        4.4017912673
 C        -5.1764193479       -2.8487926937        4.9360335001
 O        -7.5138369565       -4.1306629439        2.1428544104
 O        -3.9623540593       -4.7776435705        4.1549958793
 C        -7.7429521655       -4.7291051766        4.7298996230
 C        -6.0919931924       -6.7064777040        4.3934167256
 C        -3.7605105144       -2.1482440568        5.0171376287
 C        -3.1675755134       -1.8475869111        3.6359802031
 C        -1.6267354975       -1.4163352631        3.5847405242
 C        -1.5656369574       -0.1105327851        2.8401722533
 C        -0.8262077966        1.0697334914        3.3456366530
 C        -0.9664048075       -1.3653749778        4.9770068664
 C        -0.7627258240       -2.4820021295        2.7049038100
 O        -3.7467452633       -1.9530627081        2.5748332491
 O        -2.0192180193        0.0010766566        1.6891944181
 C        -1.0690006653        2.4365398481        2.7047787542
 C        -0.0533709755        2.6190514900        1.5027071497
 C        -0.5087888509        3.2055461594        0.1767233212
 C        -0.9986303801        4.7549893007        0.4030406094
 C        -0.5609727960        5.7632971097       -0.6071453446
 O         1.0454788726        2.1064738332        1.5491834845
 O        -1.7665985966        4.9726511764        1.3226726405
 C         0.4930231736        3.1012539984       -1.0773503092
 C        -1.8732986650        2.6107595006       -0.3028132616
 C         0.7756089527        6.3649851302       -0.1481642892
 C         1.5241386425        7.1246834690       -1.3056808308
 C         3.0941433550        7.5691108825       -1.1905307189
 C         4.0084567362        6.4165511817       -1.5542299638
 C         3.5173659709        5.3930119336       -2.5430584080
 C         3.3115639989        8.5098724964       -2.5204443638
 C         3.3681368350        8.2596160734        0.1003263109
 O         0.8906086695        7.3629915438       -2.3032143076
 O         5.1500074539        6.3320484565       -1.0563056492
 C         4.6279204588        4.4397105757       -2.8100441084
 C         4.3581963019        3.2571236676       -3.6947532982
 C         5.5358432991        2.5013566751       -4.2336841632
 C         6.2781293398        1.7667802863       -2.9679149086
 C         5.5931203901        0.4698684274       -2.3420086467
 O         3.2336524121        2.8034621871       -3.9287707143
 O         7.1461759374        2.3567851845       -2.3867039225
 C         5.0423862420        1.3490097530       -5.1542600159
 C         6.6804853884        3.3125894705       -4.9356184407
 C         5.9862891487        0.2367230915       -0.9112439644
 C         5.5105456408       -1.1972400661       -0.5305781784
 C         4.7974568091       -1.4199068613        0.8712504280
 C         3.4725374563       -2.1631300406        0.5425859289
 C         3.5607537179       -3.5957962356       -0.0204420716
 C         5.4848775072       -2.5025674271        1.8542369316
 C         4.5288208399       -0.1250479100        1.6226459567
 O         5.7867939645       -2.2139052964       -1.1396566408
 O         2.3803497027       -1.6838789913        0.8092068848
 C         2.3796421108       -4.0077764521       -0.9449420255
 C         1.8544766990       -2.9255839997       -1.8758120290
 C         0.3892037951       -3.0677153923       -2.4714043206
 C        -0.4627478602       -2.1683018239       -1.3862340798
 C        -0.2219448336       -0.6747276620       -1.4029299473
 O         2.4078046536       -1.8627756206       -1.9686012729
 O        -1.4808206928       -2.5573778136       -0.9182556912
 C         0.3215362161       -2.3397240550       -3.7711186140
 C        -0.1450582281       -4.5423998756       -2.4135803676
 H        -8.0872048546       -2.0938445577       -1.1173961563
 H        -7.6317259096       -1.0840816868        0.1557521613
 H        -7.6003360832       -0.4399797739       -1.4511698413
 H        -7.1233779047       -4.9206773667       -0.1047929523
 H        -5.9452138104       -6.0353017754       -0.6762721129
 H        -7.5702236221       -3.9919671332       -1.8836301842
 H        -6.4563462380       -4.8483135187       -2.8882464055
 H        -7.0932060201       -3.2486402256       -3.2859640250
 H        -4.2322908840       -3.9090393462       -3.1534975606
 H        -4.1697875130       -2.0782154740       -3.0697233464
 H        -3.3277298565       -3.1841157968       -1.9577808339
 H        -5.8186574739       -6.7255548833        1.6752867781
 H        -4.7073820218       -5.4842229149        1.8603519096
 H        -5.9102124418       -2.2915438691        4.2573374479
 H        -5.6336971496       -2.7125686395        5.9604481071
 H        -7.7889857249       -3.6426510548        4.9527724032
 H        -7.8633549321       -5.2101206942        5.7024847128
 H        -8.5734350837       -4.7742052548        4.0245024776
 H        -6.1116615471       -6.9420972766        5.4386169682
 H        -6.7652670232       -7.2249786268        3.6917199628
 H        -5.1258219616       -6.8762007828        4.0004132738
 H        -3.1469251752       -2.8547450922        5.5964119566
 H        -3.7650401251       -1.2119725577        5.5808187562
 H        -1.0250722562        1.1101923063        4.4201418425
 H         0.2571627608        0.9500466630        3.2518753863
 H         0.1302780301       -1.3415273379        4.8756514807
 H        -1.2706036526       -2.2496486395        5.5755200906
 H        -1.2215985322       -0.5026423108        5.5747375312
 H        -0.5191849113       -3.3352248933        3.2822525652
 H        -1.2793892108       -2.7887367965        1.8468589529
 H         0.1489996462       -2.0531018866        2.3520045998
 H        -2.0832798515        2.4912722510        2.3661858956
 H        -0.9779968923        3.0612743483        3.6206446914
 H        -0.4901626803        5.2651399161       -1.5465862253
 H        -1.2544534100        6.5942900621       -0.6725549746
 H         1.2384767150        3.8654663127       -0.9922706251
 H        -0.0431664567        3.1518019853       -1.9768213022
 H         1.0015356183        2.1520422626       -1.1625110107
 H        -1.9131998533        1.5006524545       -0.6559152876
 H        -2.6357623658        2.7564279664        0.5005661691
 H        -2.1882086191        3.2257722492       -1.1037216078
 H         1.3699376577        5.5439995997        0.2821175800
 H         0.6662329765        7.0073768780        0.7009670098
 H         2.5602140151        4.9061155572       -2.3009211883
 H         3.2185743088        5.9133708195       -3.4969645890
 H         2.8465204117        9.4681593286       -2.3561777159
 H         2.8966039091        7.9296787798       -3.2900888064
 H         4.4525935760        8.5973847956       -2.7733650939
 H         2.9370007616        7.6603207613        0.9225903411
 H         4.3738039336        8.3928484684        0.2444572231
 H         2.8737273535        9.1641880962        0.1386676452
 H         5.4388559723        5.0947531753       -3.2952182847
 H         5.0023681004        4.1902486916       -1.8642620525
 H         4.4724690982        0.6994537971       -2.3994023632
 H         5.7612468308       -0.4228741636       -2.9934345936
 H         5.8508519369        0.6644847341       -5.3936459242
 H         4.6123873162        1.7563587141       -6.0335262820
 H         4.3573951079        0.7033884804       -4.7432829523
 H         6.1669739253        3.8700170232       -5.7522703398
 H         7.2990243224        3.9876347372       -4.3595018932
 H         7.3127158151        2.5411800179       -5.4631128204
 H         5.6137340966        1.1152573648       -0.3076406792
 H         7.0915640393        0.2382744555       -0.7241748541
 H         4.4426647860       -3.8344274450       -0.5902802101
 H         3.5817243809       -4.3789090735        0.6911314987
 H         6.4826782471       -2.2128586501        2.2913105356
 H         5.5784117083       -3.5218689311        1.3972382965
 H         4.7154066332       -2.7541058973        2.6841327313
 H         5.4755856168        0.4549662725        1.7581670272
 H         3.9035436790        0.5282450338        1.0044212984
 H         4.0476372013       -0.4264957616        2.6036586090
 H         2.7741529473       -4.8165103648       -1.6076583287
 H         1.5146034257       -4.4940986152       -0.4157375606
 H        -0.2817089996       -0.3544126553       -0.3826481472
 H         0.8350879373       -0.3435881661       -1.6585822242
 H        -0.8476069582       -0.0474014604       -2.0511098405
 H        -0.5134806562       -1.7042335431       -3.8803056554
 H         0.3542457881       -3.0229005554       -4.6010616947
 H         1.1740371853       -1.6439353983       -3.9560139671
 H         0.5175602561       -5.3046929388       -2.7066248305
 H        -0.2806348745       -4.7547615507       -1.3702066487
 H        -1.2009886829       -4.5739313264       -2.8658138034
 Na       -3.0003368817       -1.5380529108        0.2881582686
