155

 C        -7.1198875478       -1.5372431713       -1.4054628992
 C        -5.7126720787       -2.0004312279       -1.1701564567
 C        -5.3208292847       -3.4911964676       -1.6478742959
 C        -5.1657719899       -4.3533833863       -0.4107524051
 C        -5.9216871775       -5.7021475191       -0.2404253721
 C        -6.3974401143       -4.0959445935       -2.6042623983
 C        -4.0141811886       -3.4026907532       -2.4982662299
 O        -4.9485208439       -1.2195400965       -0.6261894010
 O        -4.1447137047       -4.1567852722        0.2496159598
 C        -5.8656511625       -6.0069659269        1.2854475845
 C        -6.4006645149       -4.8870171518        2.1285073052
 C        -6.5568397404       -5.0023296977        3.6441649188
 C        -5.2169424580       -4.1567888234        4.1245097804
 C        -5.3944378918       -2.7018194415        4.6464789836
 O        -6.8096136948       -3.9182258470        1.4419743211
 O        -4.1533208531       -4.6471381713        4.1005589835
 C        -7.8300582983       -4.3337394490        4.1234636253
 C        -6.3525908454       -6.4653056736        4.0731540041
 C        -4.0500493076       -1.9749275405        4.7502317434
 C        -3.2402533842       -1.9740732445        3.3974336106
 C        -1.7441076819       -1.5628817597        3.4759142108
 C        -1.7466841327       -0.2287554153        2.6297957135
 C        -1.6059818299        1.0867072204        3.3571894484
 C        -1.1953006304       -1.3621241118        4.8999005115
 C        -0.8159016633       -2.6844338163        2.6995443809
 O        -3.7368330096       -2.3549618029        2.3600009280
 O        -2.0747528424       -0.2939827968        1.4467586696
 C        -1.7629659735        2.2555730635        2.3551241903
 C        -0.5459254334        2.3608941510        1.3231379764
 C        -0.6335219355        3.3110123439        0.0354998298
 C        -0.7572804241        4.7971754049        0.7018118834
 C        -0.3226623431        5.8889579430       -0.2796881656
 O         0.4051424469        1.6258498981        1.4645992710
 O        -1.4361132102        4.9760333863        1.6568567918
 C         0.6277226550        3.2812094549       -0.7657600619
 C        -1.8395893629        3.0578016719       -0.8065089006
 C         0.8132644468        6.7388486283        0.1529307255
 C         1.3547367569        7.4407707988       -1.0144735633
 C         2.8615258538        7.9221662369       -1.1478102758
 C         3.6321922474        6.5080095432       -1.0983273232
 C         4.2299829751        6.0905589997       -2.4843530486
 C         3.1045429488        8.7758403353       -2.3735187777
 C         3.2614002136        8.5884119773        0.1531063842
 O         0.6399648307        7.4885916074       -2.0488901335
 O         3.6036005761        5.7095107459       -0.1881716777
 C         4.8228014478        4.5963435537       -2.4447867762
 C         4.4935229081        3.8885114680       -3.7531864183
 C         5.6053922798        2.7359473107       -4.2346005823
 C         5.8088007144        1.9624248820       -2.8830294516
 C         4.8054261077        0.8837892343       -2.5037357780
 O         3.3985731387        3.8455647116       -4.2878880039
 O         6.7070507186        2.2785522716       -2.1391267603
 C         5.0402870042        1.6823566235       -5.2229502280
 C         6.9244403476        3.3979241774       -4.7565405626
 C         4.6347134653        0.7493818788       -0.8989598001
 C         5.1559983511       -0.5985179881       -0.5015367673
 C         4.8235397845       -0.9197485105        1.1392744725
 C         3.6924155558       -2.0112157233        1.0057042192
 C         4.0002698142       -3.3672407274        0.4251872614
 C         6.0964667130       -1.5682556393        1.6142574428
 C         4.3975464387        0.3582282127        1.9591935472
 O         5.8243916341       -1.3629326546       -1.1770969653
 O         2.5340283187       -1.6665003380        1.1503159052
 C         2.6794730228       -4.0740310243       -0.2127031556
 C         2.3555425834       -3.4966129017       -1.5582519964
 C         0.8283000246       -3.6195412975       -2.1452891847
 C        -0.0922806162       -2.7013932719       -1.3406800719
 C         0.4971480931       -1.3493078957       -1.1630922786
 O         3.1972724656       -3.0346421310       -2.2793790457
 O        -1.1568786747       -3.1202141670       -0.9058698752
 C         0.8116454054       -3.0470466378       -3.6384377575
 C         0.2749467097       -5.0171414072       -2.2020984370
 H        -7.1995275032       -0.5297107934       -1.6859391510
 H        -7.7932013220       -2.1061212022       -2.0752996748
 H        -7.6164460257       -1.4762368307       -0.4068943132
 H        -6.9679033791       -5.4090637681       -0.3939681491
 H        -5.4911181378       -6.4433366945       -0.8448684145
 H        -7.4393315774       -4.1372302746       -2.2143540441
 H        -6.0695156020       -5.0793692340       -2.8746086337
 H        -6.4613025628       -3.4956458448       -3.5061486239
 H        -3.7180674259       -4.4006327742       -2.7641397238
 H        -4.2061928188       -2.8365995429       -3.3913745272
 H        -3.1456343177       -3.0305075166       -2.0109573578
 H        -6.5464949355       -6.8537649126        1.5172409448
 H        -4.8630600279       -6.2556027055        1.5671035007
 H        -6.1560900268       -2.2185627923        3.9558245784
 H        -5.8687202675       -2.9650784633        5.5484559151
 H        -8.4147335087       -3.7451215980        3.4658562996
 H        -7.6480325834       -3.8839151823        5.0495887377
 H        -8.5595837331       -5.0143779750        4.4150864913
 H        -6.6900156593       -6.5762349743        5.1579069857
 H        -6.8985564429       -7.2112870673        3.5148469588
 H        -5.2708922428       -6.6897804677        4.1544749058
 H        -3.3090777834       -2.4764926520        5.4075241437
 H        -4.3382562351       -1.0415905773        5.1810563289
 H        -2.4522122866        1.0395889967        4.0953127678
 H        -0.6216297031        1.1295928573        3.8735598903
 H        -0.1315928200       -1.2937363041        4.8595783356
 H        -1.4228883463       -2.2313952641        5.4451390217
 H        -1.5218857037       -0.4950129985        5.4514538519
 H        -0.7835545553       -3.5848406918        3.3282419221
 H        -1.1271776472       -2.9038693666        1.6679705371
 H         0.2947433526       -2.4631320437        2.7981201294
 H        -2.5918448411        1.9893352502        1.7140760971
 H        -2.1327121532        3.1990871325        2.7963807370
 H        -0.1310412821        5.5485986301       -1.3176162368
 H        -1.2431867449        6.4687144672       -0.4426635630
 H         1.4586159045        3.8877161399       -0.4079101973
 H         0.4594295599        3.5458022497       -1.8433895034
 H         1.0733857535        2.3011698444       -0.6755946565
 H        -1.5862855440        2.4739774017       -1.6052271800
 H        -2.5436227460        2.5069580681       -0.2665321997
 H        -2.2579932575        4.0093605382       -1.2463147948
 H         1.4993662869        6.0570987581        0.6736902673
 H         0.4549307966        7.4292999367        0.8878317160
 H         3.4585327664        6.1539147298       -3.2749162045
 H         5.0209120273        6.7688859233       -2.7438163473
 H         2.4990572083        9.6741360173       -2.4544415696
 H         3.0243382537        8.2196920813       -3.3738336075
 H         4.1279871662        9.0583655156       -2.3191991968
 H         3.0522015689        8.0542280054        1.1009189733
 H         4.3423969151        8.9620025475        0.2134918104
 H         2.6091021435        9.5086141010        0.3295912969
 H         5.9484806628        4.5747318399       -2.2845314478
 H         4.4295985721        4.0504798066       -1.5951353636
 H         3.8741622005        1.0596611560       -3.0680478638
 H         5.1368166684       -0.0494334528       -2.6961283819
 H         5.7562121753        0.8811790703       -5.2756897782
 H         4.8042015556        1.9322442860       -6.2699964325
 H         4.0578872706        1.1647886240       -4.9540642638
 H         6.7537872769        4.0394787141       -5.5991111190
 H         7.2670583420        3.9659257367       -3.9016537317
 H         7.6358066671        2.6605646966       -4.9183740153
 H         3.6323238606        0.9449853088       -0.5943122867
 H         5.2819747541        1.4635991532       -0.4310567841
 H         4.7068324991       -3.2308049984       -0.4924562934
 H         4.4229468976       -4.1571126053        1.0898879015
 H         6.8793947625       -0.8040311548        1.6088613166
 H         6.4937853795       -2.4527775277        1.1051156156
 H         6.0333744489       -1.8409182787        2.6326214179
 H         5.1929253668        1.0723404250        1.7754647074
 H         3.4151379880        0.8589290531        1.8368117355
 H         4.3114158777        0.1406105369        3.0439152410
 H         2.9988437253       -5.0640668205       -0.2870461946
 H         1.8430425292       -4.0254835161        0.4403941682
 H         1.1463932144       -1.5071288466       -0.3402116862
 H         1.0084427041       -1.0931576712       -1.9967515343
 H        -0.1600353801       -0.5575916935       -0.9437214370
 H        -0.1461469956       -2.5621849634       -4.0696329323
 H         1.0484899801       -3.8923503983       -4.3274034050
 H         1.6564949482       -2.4564690252       -3.9244920195
 H         0.9337344824       -5.8994057762       -2.6044273577
 H        -0.0143493181       -5.3290359679       -1.1942579012
 H        -0.6119398294       -4.9682676373       -2.8090836179
 Na       -2.8669225814       -2.0178091144        0.2170689903
