155

 C        -6.7539560670       -1.8495434742       -1.2190024157
 C        -5.3469883250       -2.4934739400       -1.1374074180
 C        -5.2112388997       -3.9753474552       -1.7855495741
 C        -5.0609141199       -4.8795389933       -0.4946850329
 C        -6.1096080090       -5.9840708687       -0.4051034421
 C        -6.4116636389       -4.2645559490       -2.7615538005
 C        -3.9149048106       -4.1546079939       -2.5475575790
 O        -4.4177165852       -1.8830363607       -0.6283275728
 O        -4.0692399572       -4.9632686450        0.2089893740
 C        -6.4940004853       -6.2743528136        1.0733742991
 C        -6.8330553786       -4.9801166596        1.7375673405
 C        -7.1424238835       -5.0181216166        3.3797406542
 C        -5.8062556816       -4.4809833337        4.0363508784
 C        -5.6423256271       -2.9461937604        3.8640296261
 O        -6.6710761814       -3.9507502135        1.1417958846
 O        -5.0563471240       -5.1388677644        4.7088467755
 C        -8.4929023072       -4.1271204597        3.5213490270
 C        -7.4028403390       -6.4079515617        3.9605440916
 C        -4.1193654703       -2.4665664598        4.2810424777
 C        -3.0327751606       -2.5725254443        3.2214138187
 C        -1.7065556533       -1.6979656486        3.2416203601
 C        -1.8611393251       -0.5951318186        2.0908616220
 C        -1.9026855393        0.8370119705        2.5602555045
 C        -1.3945587659       -1.2565501032        4.6598348028
 C        -0.6196796156       -2.6461123364        2.8371287789
 O        -3.3457716591       -3.2692470717        2.2920633789
 O        -2.0460746460       -0.8275151877        0.8882689231
 C        -2.0919470583        1.8861387366        1.4543760257
 C        -0.7705850542        2.4460173652        0.8650764445
 C        -0.8867827406        3.6263388689       -0.2173223598
 C        -0.9273844480        5.0354776819        0.6668874842
 C        -0.6429596623        6.2919469428       -0.1717707093
 O         0.3318827689        1.9836653282        1.1259092468
 O        -0.9968082283        4.9403701273        1.8538523818
 C         0.2596257040        3.6255887880       -1.2209151187
 C        -2.2890140017        3.4597882119       -1.0223501577
 C         0.8733339532        6.5210013154        0.0018760822
 C         1.3157209802        7.7702590047       -0.8734425669
 C         2.9033183107        8.0123968609       -1.1105921281
 C         3.5354695699        6.8421138178       -1.8930607305
 C         4.8927679695        7.1451042612       -2.4969824157
 C         3.0482706423        9.3858768667       -1.8322767141
 C         3.5356582110        8.1318796482        0.2977787686
 O         0.5288963398        8.5543360231       -1.3725385181
 O         2.9611446531        5.7698341020       -1.9251262114
 C         5.7557450683        5.9701071441       -2.8754884930
 C         5.1200351477        4.8203906271       -3.7621448428
 C         5.5712600445        3.3850964407       -3.3580638577
 C         4.9761471527        2.9223043868       -1.9348024923
 C         4.0453009890        1.6356224364       -2.0033818944
 O         4.3605539063        5.0334125787       -4.6509314982
 O         5.2838418272        3.3437757241       -0.8358989484
 C         5.0515648019        2.4078517889       -4.4130303616
 C         7.1532222584        3.3181968646       -3.3097129981
 C         3.8370072616        1.0989179887       -0.5734899121
 C         4.9537195618        0.0632378658       -0.1158692323
 C         4.7717819019       -0.6954588385        1.3751657473
 C         3.9621764453       -1.9277801094        0.9821745618
 C         4.6870149606       -3.0403868678        0.2551102809
 C         6.1862787210       -1.0682403187        1.8301226172
 C         4.0416691391        0.1627056007        2.4371257323
 O         5.8912065835       -0.2609728121       -0.8582982518
 O         2.7256265325       -1.9055180979        0.9397895782
 C         3.6046621644       -4.0541173169       -0.1560420033
 C         2.8317354191       -3.6337823958       -1.4543708387
 C         1.5000277828       -4.2717687976       -1.8963161710
 C         0.3802050692       -3.4039289632       -1.2570687729
 C         0.4761986748       -1.9030275560       -1.1617364090
 O         3.0537326869       -2.5540282964       -1.9568565823
 O        -0.5488904564       -4.0139816122       -0.7143587196
 C         1.4301964716       -4.1814315728       -3.4021384401
 C         1.4257356380       -5.8075271218       -1.4426496441
 H        -6.7041796101       -0.8956468525       -0.6013208622
 H        -7.1362759061       -1.4829573115       -2.1653384746
 H        -7.5069232113       -2.5091746533       -0.7890176485
 H        -6.9796940273       -5.7640013325       -0.9256804054
 H        -5.7850498356       -6.7753834285       -1.1268257485
 H        -7.3722057755       -4.1418628676       -2.3062602342
 H        -6.1595553614       -5.2895342433       -3.0512076084
 H        -6.3458272861       -3.5908632984       -3.6073787129
 H        -3.2339567369       -3.5160920099       -2.0671262099
 H        -3.4860323530       -5.1048640602       -2.6786171435
 H        -4.1105167961       -3.7024425832       -3.5334235641
 H        -7.3942099548       -6.8824181233        1.1943903101
 H        -5.8092360079       -6.8636591011        1.6592124962
 H        -5.6776817235       -2.7217108975        2.8474995425
 H        -6.3845005596       -2.2983497115        4.3199264792
 H        -8.4601795303       -3.3982480746        2.7169121828
 H        -8.6348473056       -3.8663864266        4.5125429908
 H        -9.2890675271       -4.7589552508        3.1217431839
 H        -7.6019750484       -6.4178439924        4.9993427724
 H        -8.3039163911       -6.9457807852        3.5843470512
 H        -6.5830064218       -7.1243079559        3.8894864699
 H        -3.9679101954       -3.1462340343        5.1610703056
 H        -4.1152648974       -1.4450094895        4.6402084361
 H        -2.7171380470        1.0363600458        3.2636959601
 H        -1.0397258358        1.1674232215        3.1497832059
 H        -0.3654950350       -1.0560380846        4.8626065131
 H        -1.8502194053       -1.9803741415        5.3474353765
 H        -1.8530805187       -0.3254878229        4.7867786897
 H        -0.6237365696       -3.4968272703        3.5921628596
 H        -0.6612199000       -3.0267297430        1.7637432450
 H         0.3472365895       -2.1733334743        2.9791602887
 H        -2.5218300825        1.3510450992        0.6230139876
 H        -2.6850377822        2.7285085409        1.7656814021
 H        -0.9097855415        6.2381229215       -1.2219460483
 H        -1.2676658737        7.1207984962        0.1378241726
 H         1.2076760839        3.8531886423       -0.7408119383
 H         0.0169595529        4.2652528672       -2.0425026835
 H         0.3852762087        2.5523367511       -1.4744995408
 H        -2.3975723782        2.4522855321       -1.4825583021
 H        -3.1709549495        3.6249257082       -0.4433240995
 H        -2.2388993584        4.1281661188       -1.8149507557
 H         1.4616176969        5.6728038878       -0.4133350058
 H         1.1596545000        6.6697773488        1.1164219706
 H         4.6570870255        7.8126896114       -3.4060812925
 H         5.4107945312        7.8220295377       -1.8268594342
 H         2.1877737383       10.0862576894       -1.4687509464
 H         2.8149608607        9.2523938054       -2.9133713743
 H         3.9303417726        9.9162874558       -1.7567881969
 H         3.4538879225        7.2974107309        0.9417077742
 H         4.6524979514        8.2422199388        0.0383037621
 H         3.1647549817        9.0531998634        0.8765312008
 H         6.6102733053        6.4062797894       -3.3708747508
 H         6.0886124884        5.5017516478       -1.9591926717
 H         3.0941103344        1.8834485239       -2.4454365338
 H         4.4694036786        0.7350870345       -2.5437649773
 H         5.4304509138        1.4076997656       -4.1183837587
 H         5.5504263760        2.6828403148       -5.3800042733
 H         3.9723921568        2.5332700536       -4.5257373722
 H         7.5198933684        3.3439909393       -4.3452739899
 H         7.5613791890        4.1866347228       -2.8129227303
 H         7.4417914985        2.3855199344       -2.7606780932
 H         2.7901579695        0.7395730062       -0.4367534241
 H         3.9407678858        1.8958417711        0.2108263417
 H         5.2496675168       -2.7148938186       -0.5918147721
 H         5.4388968682       -3.4876483091        0.9309006962
 H         6.6997725229       -0.2057328866        2.2912058865
 H         6.6927967694       -1.3671679804        0.9083781711
 H         6.1207216037       -1.9395908779        2.4969721937
 H         4.4821511623        1.1797650669        2.5685436953
 H         2.9531213613        0.2565189516        2.2474555443
 H         3.9595245596       -0.3073663072        3.4154941449
 H         3.9521807540       -5.0835547579       -0.2595996936
 H         2.8177578845       -4.1081285272        0.6253594770
 H         1.2077778416       -1.7108509510       -0.4531325285
 H         1.0169808088       -1.5636310066       -1.9776520421
 H        -0.4526167389       -1.3489585400       -1.0842852303
 H         0.9736129635       -3.2440056502       -3.6121106389
 H         0.8261578366       -5.0515106582       -3.7249453520
 H         2.3716790987       -4.1684330235       -4.0688563842
 H         2.3600477935       -6.1828699689       -1.7480082274
 H         1.3802832626       -5.9086033876       -0.3325358946
 H         0.6402081229       -6.4636409701       -1.9645347553
 Na       -2.5134731340       -3.1568548025        0.3125851117
