155

 C        -6.6581030520       -2.0319143859       -1.5479442141
 C        -5.3989815040       -2.7838055751       -1.4542304897
 C        -5.2136620951       -4.1844477530       -2.0348966729
 C        -5.0616754497       -5.1521979014       -0.8051440537
 C        -6.3681686258       -5.9881634876       -0.4643698856
 C        -6.3642236896       -4.6241064691       -2.9691258811
 C        -3.9335316398       -4.2507519796       -2.9073656052
 O        -4.5246975047       -2.4011472063       -0.6932565063
 O        -3.9520071066       -5.2362146429       -0.2764177709
 C        -6.3193522436       -6.1486643322        1.0438110565
 C        -6.8426466571       -4.9146930434        1.8246270566
 C        -7.0855138050       -4.8507265431        3.3730670465
 C        -5.7676806481       -4.2359826968        3.9700824976
 C        -5.7627415667       -2.7291797034        3.9289307336
 O        -6.8795775598       -3.9125174635        1.1132934786
 O        -4.9564620163       -4.8710101311        4.6352363186
 C        -8.3839908923       -3.9082209149        3.6100430656
 C        -7.2899576300       -6.1892154756        3.9422954390
 C        -4.3190180928       -2.1611171379        4.3295592247
 C        -3.0794325003       -2.4725431196        3.3333884551
 C        -1.7132138623       -1.7356985521        3.2807085822
 C        -1.9040100606       -0.7674628775        2.0257064551
 C        -1.8807706696        0.6974104125        2.5206851712
 C        -1.4048828019       -1.1065527918        4.6661422352
 C        -0.5569890531       -2.7420414812        2.9823412391
 O        -3.3715963224       -3.2712111634        2.4658839342
 O        -2.0577547822       -1.2432953905        0.8859051232
 C        -2.1527239683        1.6892424485        1.3593357411
 C        -0.9096668565        2.0285613383        0.5532514731
 C        -1.0177202237        3.3547651439       -0.3899527060
 C        -0.9630172193        4.6178344906        0.4749681850
 C        -0.5479997454        6.0390415253       -0.0770444424
 O         0.0171875059        1.2491634848        0.4176287525
 O        -1.2262313511        4.5086135073        1.6649032554
 C         0.1466576849        3.3738015470       -1.3492894043
 C        -2.3150098129        3.4300305213       -1.2163554250
 C         0.8933598699        6.4982638425        0.3691428397
 C         1.3469026830        7.6932074368       -0.5830154819
 C         2.8866002958        8.0395322296       -0.8930628979
 C         3.5068482377        6.9355485188       -1.7812217961
 C         4.7512236898        7.2505462779       -2.7322724319
 C         2.8736318142        9.3565804720       -1.6181404685
 C         3.7440298931        8.2572722631        0.4714630655
 O         0.4912457610        8.2858344274       -1.0975440279
 O         2.9219818307        5.8804718940       -1.9074907372
 C         5.7488803982        6.1177121384       -2.7024237916
 C         5.3656181219        4.8237133279       -3.5674758265
 C         5.6509269958        3.3792995215       -2.9880358812
 C         4.9015872278        3.1864792710       -1.5962834640
 C         3.8361918683        2.1073073566       -1.6235566921
 O         5.1330666241        5.0121476152       -4.7241199844
 O         4.9969897833        3.9913007570       -0.6976791622
 C         5.4070157776        2.3456867760       -4.1357713765
 C         7.1581206731        3.3574695752       -2.6624795825
 C         3.4139006496        1.5395445183       -0.2660036235
 C         4.7104734563        0.5867906247        0.0762720536
 C         4.7306989023       -0.3585113036        1.4022445121
 C         3.9698616296       -1.6548047465        1.1031607029
 C         4.6009783863       -2.4889496366        0.0388305566
 C         6.1909851884       -0.4944368079        1.8145128738
 C         3.8754226625        0.3388261060        2.4146481558
 O         5.7069765880        0.6649481503       -0.6253307053
 O         2.9020247519       -2.0108107499        1.5877270798
 C         3.7999313787       -3.6752748733       -0.3871697724
 C         2.9138509928       -3.5326230581       -1.6532575562
 C         1.7073521131       -4.4067729520       -1.9463960425
 C         0.4938269182       -3.6268179951       -1.3602292024
 C         0.0903223490       -2.1565860844       -1.7773626876
 O         3.3300469871       -2.6557476719       -2.4192040626
 O        -0.2304230322       -4.1426680011       -0.5579726697
 C         1.5950396634       -4.5385733315       -3.5419888443
 C         1.7461407941       -5.8764564123       -1.2568543827
 H        -6.6745225206       -1.0110953747       -1.1067164865
 H        -6.9390602224       -1.9279917973       -2.6056102981
 H        -7.4712283343       -2.5818768605       -1.0691280073
 H        -7.2565507757       -5.4509111481       -0.7103200482
 H        -6.3110125541       -6.9775782275       -1.0014341407
 H        -7.2749893041       -4.1029784733       -2.6118374401
 H        -6.6079968932       -5.6485383971       -3.1537868092
 H        -6.1053193597       -4.1087387113       -3.8927338257
 H        -3.0522488250       -3.8819768931       -2.3840741137
 H        -3.9005054477       -5.2806611637       -3.2133299143
 H        -3.9965241842       -3.6938887720       -3.7656475287
 H        -6.6857279474       -7.1913136874        1.3471893579
 H        -5.2180586780       -6.1298922192        1.2984575033
 H        -5.8125107474       -2.3739654507        2.8937614469
 H        -6.6731516848       -2.1362854029        4.3931341091
 H        -8.4126194624       -3.3585019735        2.6773786451
 H        -8.2400662537       -3.3070121431        4.5532258687
 H        -9.2001075660       -4.6278786076        3.7685875578
 H        -7.5803169296       -6.0616532201        5.0188465405
 H        -8.0489558422       -6.7899993418        3.5182777092
 H        -6.4361145087       -6.9197322771        4.0360158928
 H        -4.0229414227       -2.6561721276        5.2705753446
 H        -4.3891151339       -1.0362329482        4.4974448069
 H        -2.6093936793        0.9520282392        3.2471566666
 H        -0.9745742909        1.0360265451        2.9734148824
 H        -0.3285813956       -1.0482700129        4.7172500573
 H        -1.7502835133       -1.6377917071        5.5451939926
 H        -1.9683765227       -0.1263499179        4.8258086927
 H        -0.3906980789       -3.4892188215        3.8250836152
 H        -0.7012419395       -3.2466672177        1.9565738369
 H         0.4026189435       -2.1784125721        2.9331835012
 H        -2.7875067477        1.1559105539        0.6691029969
 H        -2.5444641842        2.6428519385        1.7365489761
 H        -0.6599576863        6.1317624018       -1.1947796144
 H        -1.2498074862        6.7885260246        0.4250970175
 H         0.9938611165        3.1948595478       -0.6846652588
 H         0.2454970097        4.2660832750       -1.9910798591
 H        -0.0738667975        2.6075075211       -2.1094250470
 H        -2.5229580332        2.5164867317       -1.7786121517
 H        -3.2588310551        3.7144025186       -0.6011106379
 H        -2.2425210591        4.2116869607       -1.9219788848
 H         1.6327378286        5.6957136126        0.4708509450
 H         0.8843268439        6.9969760127        1.2793040315
 H         4.3314733219        7.3038499407       -3.7344449175
 H         5.2343389748        8.2214801932       -2.3460194872
 H         2.2017349344       10.0283324520       -1.0103463483
 H         2.6898724269        9.2842487883       -2.6141080032
 H         3.8432673528        9.7635585593       -1.5407534228
 H         3.4792971041        7.3840372396        1.0294497038
 H         4.8023153806        8.3695576893        0.3119715456
 H         3.2969979387        9.0743886407        1.0437841591
 H         6.7296812358        6.5147484751       -3.0801110891
 H         5.9778475910        5.8925480740       -1.6728174630
 H         2.8421566819        2.5028185206       -2.1388459374
 H         4.1993571803        1.2406571188       -2.2349152209
 H         5.4057105799        1.3419199721       -3.5641254893
 H         6.1916097603        2.4397649576       -4.8275660985
 H         4.4054397067        2.4341898029       -4.5834078253
 H         7.7049654275        3.3405285528       -3.5807431710
 H         7.4281367899        4.2905025363       -2.1389331999
 H         7.5045685576        2.5437448771       -2.0633209352
 H         2.4921730757        0.8820380605       -0.3685230433
 H         3.3556985596        2.2040857251        0.6499577164
 H         4.7483748306       -1.8264123715       -0.7918278325
 H         5.5240209662       -2.7679415255        0.3841744465
 H         6.3654679464        0.4062980647        2.3390281730
 H         6.9396485026       -0.5502229420        1.0712562372
 H         6.0770132188       -1.2370474551        2.6042526512
 H         4.1493709798        1.3622436192        2.6268112686
 H         2.8977756038        0.4836603751        1.9585285910
 H         3.8192789675       -0.0872283943        3.4131422437
 H         4.4920812862       -4.5773410052       -0.5003065354
 H         3.0745465334       -3.8061907189        0.4632954964
 H         0.6327252552       -1.7835248262       -2.6601718538
 H        -0.9721542454       -1.9902439116       -2.0346193425
 H         0.1702438241       -1.4283793630       -0.9007782070
 H         2.3298838846       -3.8637328930       -4.0344110443
 H         0.5703261142       -4.3001169213       -3.8776237512
 H         1.9924709201       -5.5780519611       -3.7820612460
 H         2.7528694717       -6.2583873421       -1.2673207142
 H         1.5378180271       -5.7251671254       -0.1397244531
 H         0.9819499942       -6.5181864147       -1.5870046643
 Na       -2.4864593294       -3.5079734987        0.3944120048
