155

 C        -6.6194942479       -2.1210822476       -1.6174953794
 C        -5.3218545432       -2.9119004266       -1.5191408654
 C        -5.1928209317       -4.3107635915       -2.1969405692
 C        -4.9440885840       -5.2661338642       -0.9041521481
 C        -6.1789430961       -6.0995509918       -0.2961374788
 C        -6.3728935439       -4.7260343653       -3.0221497484
 C        -3.9005872085       -4.1842846783       -3.0269680026
 O        -4.3610275842       -2.4440565206       -0.9302968958
 O        -3.8376487020       -5.2859240551       -0.4151897382
 C        -6.2481557905       -6.0518342555        1.2323498416
 C        -6.8151839377       -4.7920589268        1.7994661041
 C        -7.0623518614       -4.7545429934        3.4015119261
 C        -5.8213774780       -4.0985883866        3.9614760765
 C        -5.5548413887       -2.5525896768        3.8216344412
 O        -7.0701895501       -3.7721402150        1.1924586895
 O        -4.9559500882       -4.7407337497        4.5465898092
 C        -8.3231543842       -3.9333314215        3.7028659938
 C        -7.2150161098       -6.1835856012        3.9084404952
 C        -4.2181314029       -2.0644522711        4.3810517714
 C        -3.1820269314       -2.6258959179        3.3608092399
 C        -1.7923681533       -1.8352996002        3.3528409453
 C        -1.9641838958       -0.7331205917        2.1065407541
 C        -1.9596201573        0.8186867226        2.4215401861
 C        -1.4528905119       -1.1947945055        4.6509459294
 C        -0.6887627953       -2.9066301320        2.9478486676
 O        -3.4031027641       -3.4694149887        2.4916760284
 O        -2.0125771718       -1.1987423180        0.9962943766
 C        -2.1949875672        1.6688338784        1.1276523297
 C        -0.9267830285        1.9576833136        0.2489426858
 C        -0.9400839128        3.3217870144       -0.5049156746
 C        -0.8878267038        4.5730635878        0.5610403697
 C        -0.4597810254        5.8629706524       -0.0966283828
 O         0.0061845248        1.2025748856        0.1876932161
 O        -1.0617932590        4.3711179549        1.7556211626
 C         0.2295951795        3.4284215589       -1.5428416939
 C        -2.3488894678        3.3743602046       -1.2349898378
 C         0.9581015383        6.2520111072        0.2402120932
 C         1.2686733870        7.5840098255       -0.5097787372
 C         2.7940310580        7.8566656120       -0.7887809346
 C         3.4255026407        6.7866244828       -1.7989348832
 C         4.7058839916        7.2897532812       -2.4744379924
 C         2.7824702897        9.2524503050       -1.5267889072
 C         3.5234428990        7.9936948988        0.5191822580
 O         0.3600148118        8.2479560895       -1.0394457207
 O         2.8390107990        5.7793263066       -2.0995115856
 C         5.8017968829        6.1235020481       -2.5730529228
 C         5.4756797614        4.9679322890       -3.4759398120
 C         5.7731772006        3.4833755133       -2.8573189864
 C         4.7976408989        3.2618092355       -1.6258630293
 C         3.5576010650        2.4259352519       -1.6257034674
 O         5.0590174488        5.0069730821       -4.6364704050
 O         5.0588576044        3.8164868985       -0.5669980051
 C         5.5016077823        2.2984658869       -3.9103528329
 C         7.2176354112        3.4818274118       -2.3563496509
 C         3.4744176773        1.7063336207       -0.2569776496
 C         4.7752751185        0.8912372373        0.0930885821
 C         4.5433462578       -0.0229954125        1.4256856316
 C         3.9543526838       -1.4628993906        1.0463143495
 C         4.5661861676       -2.3180041007       -0.1294921021
 C         6.0163642514       -0.4495957103        2.0289553929
 C         3.7885418140        0.5890376390        2.5793879647
 O         5.7392898023        0.6296976667       -0.5610304103
 O         3.0052947163       -1.8835324210        1.6451505096
 C         3.6213875564       -3.5740634025       -0.4295601299
 C         2.8937910100       -3.3887385722       -1.7393734774
 C         1.6653794517       -4.4051869509       -1.9907002553
 C         0.4521412460       -3.7105018508       -1.3978518651
 C         0.2337125246       -2.2368033556       -1.8816680832
 O         3.0977447043       -2.4788515401       -2.4740753465
 O        -0.2508918577       -4.1721744319       -0.4610878068
 C         1.6775229783       -4.8512059866       -3.5238690060
 C         1.8218248702       -5.7774346408       -1.1374917592
 H        -6.6811857460       -1.4747667962       -0.8035711007
 H        -6.8226131617       -1.5597279295       -2.5173486460
 H        -7.5080478927       -2.7376685335       -1.4511987197
 H        -7.2304824788       -5.8594753523       -0.7159603205
 H        -5.8480096289       -7.1063493509       -0.5849901060
 H        -7.2725660186       -5.0819295659       -2.5682482952
 H        -5.9518904000       -5.6136837541       -3.5286509996
 H        -6.5478584509       -4.0453800279       -3.8471157248
 H        -2.9976239555       -4.4203144781       -2.4611180867
 H        -4.0496574873       -4.7478508122       -3.9648881775
 H        -3.7594051365       -3.0896265627       -3.3220237531
 H        -6.7258611677       -6.8967270437        1.6542362263
 H        -5.1918053729       -6.0039774272        1.5014127553
 H        -5.7792689572       -2.0173046538        2.8647275338
 H        -6.3017311003       -2.2567198676        4.4445306994
 H        -8.1521538917       -2.8781880294        3.3863154803
 H        -8.4729346401       -4.0503141339        4.7671210151
 H        -9.1090132589       -4.5713287834        3.2648015762
 H        -7.2622325409       -6.3848513055        4.9600329655
 H        -8.0980588925       -6.7082894370        3.4631751398
 H        -6.4339633053       -6.8065110295        3.5892968582
 H        -4.1939268480       -2.4945675325        5.3846567435
 H        -4.0411284387       -0.9985783122        4.3765448246
 H        -2.6733835241        1.1883281773        3.1784415437
 H        -1.0100941542        1.1617850426        2.8520414227
 H        -0.4040698287       -0.7968485857        4.6816569861
 H        -1.4937606817       -1.9337894795        5.4871653879
 H        -2.2494917612       -0.5198831599        4.8687408883
 H        -0.5739873726       -3.6074414536        3.7388778338
 H        -0.9625871944       -3.4312254535        2.0988843831
 H         0.2826240865       -2.4332697236        2.7601767036
 H        -2.7741102225        0.9529514977        0.4912193366
 H        -2.6767749041        2.6335417768        1.3230074968
 H        -0.7387329483        5.7580462369       -1.1262805783
 H        -1.0757566408        6.5669124408        0.4129164106
 H         0.9474808685        4.1290594769       -1.1190368195
 H        -0.1780571242        3.8013084805       -2.4934632263
 H         0.5941041530        2.4503654171       -1.8338160014
 H        -2.4840532337        2.4247543187       -1.7553030215
 H        -3.2138721112        3.5251717842       -0.6479922278
 H        -2.3693103598        4.1680988476       -2.0769415707
 H         1.7164439844        5.5247588404        0.0241955312
 H         1.0184356246        6.4818956764        1.3563174401
 H         4.4333619754        7.6168226956       -3.4809712266
 H         5.0566025744        8.0382005183       -1.8633555185
 H         1.9697670570        9.8475077711       -1.1940699793
 H         2.6461990776        8.9549861564       -2.6169302065
 H         3.8354966503        9.7643144968       -1.5583601311
 H         3.4404154795        7.0011759349        1.0867153829
 H         4.5376646168        8.2041321011        0.2274441387
 H         3.2237608722        8.9072906484        1.0014328150
 H         6.7160088443        6.6125937906       -2.8957886837
 H         6.0919959936        5.6812824061       -1.5801140222
 H         2.6848994037        2.9462919827       -1.7694339084
 H         3.5809944562        1.6769450156       -2.3768648804
 H         5.6998156919        1.3415619316       -3.6413892167
 H         6.0448784795        2.6352530016       -4.8239902287
 H         4.4547132233        2.3778791926       -4.1176276557
 H         8.0139223586        3.2337428150       -3.0788294769
 H         7.5121214408        4.3802621231       -1.8456182343
 H         7.3521078351        2.7181134925       -1.5943858020
 H         2.8233924072        0.8894385022       -0.4297530933
 H         3.2174329065        2.1781530320        0.6352019725
 H         4.7351639950       -1.7796201510       -1.0977997906
 H         5.5816881196       -2.6340495497        0.3440875071
 H         6.5414261894        0.3837648082        2.5295679838
 H         6.4629711057       -0.6673437354        1.0480033537
 H         5.9818743527       -1.2691858620        2.6873857141
 H         4.1382087787        1.5134011457        3.0010100521
 H         2.7607070650        0.7849999622        2.4056288694
 H         3.8273835420       -0.1597497791        3.3433533865
 H         4.1846837544       -4.4515251197       -0.6539811846
 H         2.8813187713       -3.7225864165        0.3639933032
 H         0.4983112626       -2.2048761865       -2.9925915560
 H        -0.7882644167       -1.7698990354       -1.7574807689
 H         0.8317262456       -1.4789149007       -1.3393004245
 H         1.7184202426       -3.8396303123       -4.0203969487
 H         0.7423338007       -5.1682321842       -3.9371640661
 H         2.5267253886       -5.4506380453       -3.6754750824
 H         2.7059689846       -6.3147589110       -1.5550934712
 H         2.0116555423       -5.6176507128       -0.1452760159
 H         0.9192168110       -6.4061235895       -1.1395134265
 Na       -2.3937045353       -3.4469035231        0.2905835780
