155

 C        -6.5018753786       -2.1977351442       -1.6723178597
 C        -5.1831177434       -2.8446233514       -1.5643655861
 C        -5.0121358558       -4.3001397960       -2.0635317690
 C        -4.7560335916       -5.2325360504       -0.8747515383
 C        -5.9645278941       -5.9883658938       -0.2550781547
 C        -6.1998784741       -4.8837657565       -2.9905128134
 C        -3.6872878511       -4.4674040561       -2.9335104363
 O        -4.2070224996       -2.2245195925       -1.0982517619
 O        -3.6834925022       -5.3116313323       -0.3033296023
 C        -5.8630583262       -6.0523828402        1.3564726292
 C        -6.6591789791       -4.8216761162        1.8415573179
 C        -7.0332105633       -4.7505636149        3.4305578277
 C        -5.7557134655       -4.0663013045        3.9811474198
 C        -5.5951038674       -2.5691484636        3.7976810459
 O        -7.0639831076       -4.0289950404        1.0149393133
 O        -4.9192232264       -4.6828130738        4.6723342457
 C        -8.3761262804       -3.8679191339        3.4940416744
 C        -7.3026557173       -6.2902439124        3.9612605516
 C        -4.1318552548       -1.9853159802        4.1668847498
 C        -3.1241923129       -2.4670348790        3.0943387458
 C        -1.6613385485       -1.8417816338        3.0928480752
 C        -1.6746115298       -0.8888646068        1.8399142565
 C        -1.6721321784        0.5210791819        2.2253133735
 C        -1.4429545322       -1.1871986879        4.4671809476
 C        -0.5257489372       -2.9143462372        2.8767297311
 O        -3.4988052249       -3.1899339924        2.1476625773
 O        -1.8107637540       -1.3164977500        0.7049945736
 C        -2.2306656517        1.2974127039        1.0678407911
 C        -1.0868954027        1.7733709795        0.1116938874
 C        -1.2014765113        3.0969109822       -0.6846314248
 C        -0.8121647825        4.2134577757        0.4173744487
 C        -0.6149290239        5.6678958338        0.0514055842
 O        -0.1325749661        1.0484943144       -0.0392622699
 O        -0.6582828683        3.7981656389        1.5720569300
 C        -0.1375511024        3.0901996371       -1.8745500229
 C        -2.5920810021        3.3191534909       -1.2265629045
 C         0.8497692577        6.0425243089        0.0028696362
 C         1.1333027739        7.4680427395       -0.6546484548
 C         2.5916216446        7.8057767679       -0.8210344112
 C         3.4420600323        6.7912541644       -1.8899080903
 C         4.7393620311        7.3632524355       -2.5223781916
 C         2.6091505108        9.3150574942       -1.2814242513
 C         3.4852885290        7.5796036822        0.5240325983
 O         0.2431407760        8.1718830313       -0.9763546904
 O         3.0841208483        5.6705339573       -2.1030152445
 C         5.8372920509        6.2724047812       -2.1138901929
 C         5.5011753379        5.0101137575       -2.9599663070
 C         6.0177739439        3.4821936404       -2.4822229298
 C         5.0606071484        3.3041462470       -1.3632721277
 C         3.6788771532        2.5891495532       -1.5254480025
 O         4.9562772249        5.0716608981       -4.0240412432
 O         5.2879242860        3.9145100014       -0.3431140266
 C         5.7328086267        2.4766148165       -3.6495841247
 C         7.5098990677        3.5927735531       -2.1934389460
 C         3.3599456850        1.9409219589       -0.2480447640
 C         4.5122233258        0.9604120776        0.1698283972
 C         4.4120513213        0.2161046599        1.5490598873
 C         3.7517495871       -1.1562876372        1.0575800133
 C         4.4345520057       -1.8662688376       -0.1573578713
 C         5.8710507233       -0.0496339452        2.0323470700
 C         3.6350138126        0.7394867215        2.7724050367
 O         5.5259077776        0.8462078312       -0.4621616850
 O         2.7854821958       -1.6167639247        1.6010790354
 C         3.7514214497       -3.2800819811       -0.4174612752
 C         2.7012384029       -3.1706970570       -1.6219112884
 C         1.5753710935       -4.3669942673       -1.7813866847
 C         0.1496800282       -3.7825897377       -1.4979626970
 C        -0.1898155495       -2.3621064539       -1.9303627982
 O         2.9378441110       -2.4409250872       -2.5623396633
 O        -0.5555704058       -4.4176322779       -0.6907333186
 C         1.6937313628       -4.8365900578       -3.3284751381
 C         1.7424602604       -5.4513119593       -0.7897795181
 H        -6.4602147138       -1.1485664937       -1.6195147804
 H        -7.1670332332       -2.5085793404       -2.5094845881
 H        -7.0881512903       -2.4131045564       -0.7421924990
 H        -6.9051627588       -5.2904451369       -0.4117761760
 H        -5.9965753031       -7.0356254987       -0.5429306311
 H        -7.2239373076       -4.8040206435       -2.6308799274
 H        -6.0634456943       -5.9462120889       -3.0473058588
 H        -6.1602021546       -4.5876192806       -4.0277215120
 H        -2.9777311631       -3.7834386212       -2.5099039833
 H        -3.2669517744       -5.4525646039       -2.7394489169
 H        -3.8237383166       -4.2601877685       -3.9804622952
 H        -6.2852794674       -6.9772746930        1.6973488558
 H        -4.7835920312       -5.9054360935        1.6435569566
 H        -5.9013140245       -2.1765990498        2.7523893427
 H        -6.3374615772       -2.1079413961        4.3679943271
 H        -8.2221564292       -3.0857194662        2.7685698282
 H        -8.3709423190       -3.2731885528        4.4695728011
 H        -9.1178235397       -4.6675829695        3.4887658533
 H        -7.5329885036       -6.4432466311        5.0474701597
 H        -8.0563663752       -6.8992856335        3.4087314635
 H        -6.3781602693       -6.8447069123        3.8289173754
 H        -3.7363388017       -2.3151883439        5.1585598124
 H        -4.1419264457       -0.8741816220        4.0728437083
 H        -2.2976648170        0.7464635208        3.0772436701
 H        -0.7320999270        0.9077381459        2.5541994863
 H        -0.3403591010       -0.8997975831        4.5193436713
 H        -1.5566525790       -1.9614276421        5.2555264800
 H        -1.9220981024       -0.1863397201        4.6404062665
 H        -0.5101087372       -3.7851520629        3.5550084320
 H        -0.7756442367       -3.3629187677        1.8925507991
 H         0.4516381153       -2.3538802214        2.6922377827
 H        -2.9392256980        0.6090382500        0.5191913069
 H        -2.6724550679        2.2299716405        1.4150207703
 H        -1.0988439064        5.5621059584       -0.9202261801
 H        -1.1827514051        6.2367386815        0.7780158363
 H         0.2191496636        4.1523046656       -2.0117878167
 H        -0.5812765401        2.8263264669       -2.9067396191
 H         0.7969367742        2.5562482035       -1.6152870956
 H        -2.9439702525        2.4958234005       -1.8385030064
 H        -3.3132155466        3.3032912539       -0.3718918566
 H        -2.7700703553        4.2651331591       -1.8720218716
 H         1.3231359790        5.3744225537       -0.6379673940
 H         1.3024439499        5.9048691482        0.9894895795
 H         4.5985198873        7.1893156412       -3.6268170171
 H         4.8893320858        8.3675976874       -2.2622303255
 H         2.3178120236        9.9094361758       -0.4187542425
 H         1.7897656949        9.5355776601       -1.8938552527
 H         3.6666511968        9.5338130223       -1.6361312270
 H         3.6572625972        6.4876387556        0.6597983046
 H         4.3929051822        8.0300764341        0.3501403482
 H         3.0498182209        8.1670921850        1.2202424503
 H         6.8404296803        6.5481620591       -2.4358283781
 H         5.9459631760        6.0538319694       -0.9835994823
 H         2.9496312595        3.2544345065       -1.9375768439
 H         3.7649782234        1.8804204312       -2.2839551543
 H         5.8119052071        1.4495651838       -3.3491374620
 H         6.4722680393        2.6570101622       -4.4659690867
 H         4.7388848012        2.7135502029       -4.0597228375
 H         8.1107701705        4.1411096319       -2.8779521503
 H         7.8377737994        3.9141103934       -1.2287429783
 H         7.8448072104        2.6120477423       -2.3003307751
 H         2.4911034499        1.2936839188       -0.2124418175
 H         3.4212980498        2.6808325002        0.5536416271
 H         4.3684343450       -1.1094851537       -0.9341218411
 H         5.5328530172       -2.0430053842        0.0248991379
 H         6.2268204241        0.9454190941        2.1334538349
 H         6.3379712280       -0.6081005077        1.2441891020
 H         6.0091800162       -0.5642076954        2.9337188511
 H         3.8813698976        1.7712893090        2.9904685643
 H         2.5724319114        0.6591130298        2.8279214539
 H         3.9341577208        0.1434032250        3.6232615338
 H         4.5225498618       -4.0121541642       -0.6724818141
 H         3.1196068536       -3.5082363598        0.4825260076
 H        -0.1878604693       -2.4307636943       -3.1032819712
 H        -1.1171508804       -1.9824684540       -1.3585354624
 H         0.6445714555       -1.5765655416       -1.7996130502
 H         0.8678765601       -4.4324441031       -3.9813493473
 H         1.4528199508       -5.8830180630       -3.3637784456
 H         2.6874999310       -4.9524489308       -3.5342388750
 H         2.7559583471       -5.9069429825       -0.9269476435
 H         1.5706797866       -5.0905371377        0.1779171231
 H         1.0618891916       -6.2288584275       -1.0435277220
 Na       -2.5105126588       -3.3931362785       -0.0165201886
