155

 C        -6.4950961608       -2.3673491215       -1.7916283279
 C        -5.1643468914       -3.0380480997       -1.5933728285
 C        -4.9233672252       -4.4719668825       -2.0751954894
 C        -4.7537394685       -5.2659419608       -0.6468589029
 C        -5.8188640642       -6.3357022465       -0.2419596243
 C        -6.0110474060       -5.0314754128       -2.9473543729
 C        -3.5322074241       -4.7000198026       -2.7779247624
 O        -4.2013067759       -2.4198415430       -1.1195689644
 O        -3.7529504256       -5.1326331682       -0.0231410060
 C        -6.2322616764       -6.3454893400        1.2726450523
 C        -6.6913153426       -4.9755020840        1.8785989235
 C        -7.0442079491       -4.7712797014        3.3552317485
 C        -5.6983151996       -4.0464721111        3.9788032936
 C        -5.6631045794       -2.4876510904        3.8467750102
 O        -6.7777575657       -4.0635904658        1.0798338394
 O        -4.9774895742       -4.7821922184        4.6228670769
 C        -8.2802698546       -3.8995881502        3.4942905191
 C        -7.2670973088       -6.1470743220        3.9715812451
 C        -4.1732045147       -2.1311717900        4.1407798520
 C        -3.1785832692       -2.3849312071        2.9269348955
 C        -1.5868654931       -2.0888500519        2.9927375841
 C        -1.3862018961       -1.0736513202        1.7809713026
 C        -1.6513813610        0.3389608226        2.0862584989
 C        -1.2146783152       -1.5507239107        4.3321762992
 C        -0.6522063242       -3.3826060385        2.6123910929
 O        -3.6594358171       -3.0991805034        2.0465542028
 O        -1.2353827677       -1.4546990652        0.6435458199
 C        -2.1976862138        1.2291868526        0.9174300066
 C        -1.2008337100        1.5693014350       -0.2610069403
 C        -1.3745196736        2.9806648246       -0.9456790666
 C        -0.7342292249        4.0573642923        0.1411419656
 C        -0.5432552135        5.5211713730       -0.1664465179
 O        -0.3861656594        0.7384346022       -0.6190326086
 O        -0.4622036749        3.5646093740        1.2059661777
 C        -0.5617603606        3.0447686378       -2.2145455559
 C        -2.7694181256        3.5450305807       -1.1488098257
 C         0.8920979553        5.9129187173        0.0394106062
 C         1.1846491287        7.3927578067       -0.6311986554
 C         2.6095998443        7.8112050311       -0.6415804654
 C         3.4381172299        6.9879917919       -1.6978593962
 C         4.7262373688        7.6272601877       -2.2616137740
 C         2.6071471950        9.3059452621       -1.0878256384
 C         3.2396354965        7.7235294496        0.8667687280
 O         0.3290582179        8.0405625814       -1.1297996675
 O         3.0192395273        5.9344697784       -2.1641011330
 C         5.8832971373        6.5687386667       -2.3198967589
 C         5.6224241589        5.1451288973       -3.0674318830
 C         6.0964422856        3.8104293101       -2.3579746103
 C         5.1818489188        3.6035206524       -1.1398966538
 C         3.7071961707        3.0274523107       -1.3439345257
 O         5.2108206259        5.0816119682       -4.1841272301
 O         5.5508620113        3.9090592167       -0.0333722353
 C         5.9984418926        2.5657057392       -3.3583683230
 C         7.5779576116        3.9495237593       -1.8582524287
 C         3.4376018718        2.2313988111       -0.0464738189
 C         4.5537155815        1.1905578335        0.3448844693
 C         4.2246954695        0.2645567739        1.5605925505
 C         3.4486137874       -1.0477334370        1.0356221985
 C         4.1949810804       -1.8698914469        0.0360773299
 C         5.5939954825       -0.1027927008        2.2751725169
 C         3.3472640615        0.9918138544        2.6567400227
 O         5.4586044026        0.9613553023       -0.4656966871
 O         2.5142146691       -1.4958790559        1.7255302024
 C         3.7116254977       -3.2105672198       -0.2359020009
 C         2.7079257539       -3.1579195057       -1.4696518050
 C         1.6760664735       -4.3566833002       -1.7625203577
 C         0.2345170853       -3.7492979383       -1.5741983010
 C        -0.1071138194       -2.5045653104       -2.2597462422
 O         2.6908366218       -2.1331322573       -2.1344802802
 O        -0.5542256992       -4.2933389719       -0.8372136419
 C         1.6078060415       -4.9180372969       -3.1873520730
 C         1.7836270181       -5.6320911223       -0.7095878630
 H        -6.2903896966       -1.4290243667       -2.3138385599
 H        -7.2980635406       -2.9471579381       -2.2842260898
 H        -7.0031400617       -2.0121654012       -0.8473718963
 H        -6.8522581843       -6.0645868470       -0.6969317850
 H        -5.4140589690       -7.3342630847       -0.5325671249
 H        -7.0727063205       -4.9307324602       -2.5534988395
 H        -5.8383092818       -6.0500922093       -3.2650149874
 H        -6.1472786091       -4.4193157092       -3.8591373865
 H        -2.8057239833       -3.9165303608       -2.6764872953
 H        -3.0210045104       -5.5702896225       -2.3528412557
 H        -3.7705807814       -4.9089992715       -3.7521244204
 H        -7.1171141160       -6.9721220574        1.4004669994
 H        -5.4195730182       -6.7987540157        1.9608091294
 H        -6.0698699392       -2.3132423568        2.7766852533
 H        -6.3740742832       -2.0093989043        4.5576954521
 H        -8.1819510992       -2.9084346464        3.0770101100
 H        -8.6460384840       -4.0717560275        4.5669266311
 H        -8.8822817354       -4.4905772255        2.8228737351
 H        -7.6627302427       -6.1252338236        5.0385535948
 H        -8.0524918768       -6.6358696130        3.3956375023
 H        -6.3857472722       -6.8034101463        3.9017250944
 H        -3.8259727753       -2.8146425922        4.9637645766
 H        -4.0223889486       -1.0462710870        4.4158628878
 H        -2.3524586470        0.5194843745        2.8775249583
 H        -0.7676077917        0.8000659211        2.4633387610
 H        -0.1765116246       -1.2826968071        4.2902049867
 H        -1.4790659032       -2.2879108095        5.0283271175
 H        -1.7326244136       -0.5927049343        4.6811265252
 H        -0.7160733826       -4.2209376185        3.3455587569
 H        -1.0135363316       -3.8845448504        1.6509091467
 H         0.4286617076       -3.1448986655        2.5217140717
 H        -3.0974370671        0.8357365842        0.3918849436
 H        -2.4406855747        2.1907687645        1.3151213438
 H        -0.8647787189        5.7269196851       -1.2458919437
 H        -1.2221699938        6.0995763431        0.5417908386
 H        -0.9721450162        3.6020945088       -3.0562683155
 H        -0.3171621764        2.0818043629       -2.7230442490
 H         0.3449856094        3.5551415799       -1.9892125522
 H        -3.4396372439        2.9825212240       -1.7364665820
 H        -3.3094987721        3.7806887473       -0.1390585239
 H        -2.7233492774        4.5112497037       -1.6428119258
 H         1.6017088472        5.2596803191       -0.3155069560
 H         1.0190402150        6.0897305921        1.1047800094
 H         4.4547024839        7.9870331890       -3.3171966002
 H         5.0073103164        8.5341484881       -1.7178476123
 H         1.6915876394        9.8754245499       -0.6829223703
 H         2.5879210142        9.3627615884       -2.1125553563
 H         3.4559913842        9.7238129531       -0.5946984770
 H         3.3254948055        6.6713260656        1.0381574205
 H         4.2374991183        8.0349678561        0.7597507214
 H         2.5824129527        8.2547342266        1.5287118823
 H         6.7483379280        6.9710090810       -2.7901249126
 H         6.1758265872        6.4147080781       -1.2041979606
 H         2.8887816111        3.8230582278       -1.3413027407
 H         3.6302237144        2.5823660103       -2.3092562288
 H         6.2651500938        1.5835885489       -2.8734154687
 H         6.7034728750        2.6705955733       -4.1691783469
 H         5.0287089063        2.5930276784       -3.8982073884
 H         8.2838636265        4.0942313380       -2.6902141082
 H         7.8939527250        4.8072313022       -1.2338258387
 H         7.8923490800        3.0778147516       -1.3213990384
 H         2.3561508311        1.8492940059        0.0303886319
 H         3.6127393921        3.0011863629        0.8079984341
 H         4.2977455519       -1.3557111448       -0.8785781499
 H         5.1728493882       -1.8437411365        0.4807369749
 H         5.7254316898        0.7425766873        2.9491676159
 H         6.4566573669       -0.2723419815        1.5893807379
 H         5.4155900555       -1.0283349298        2.8256004810
 H         3.8171788258        1.8810268346        3.1190476053
 H         2.3157508806        1.1536431954        2.2692585971
 H         3.1629920484        0.2752589325        3.5273994468
 H         4.4871251928       -3.9796885883       -0.3776689317
 H         2.9588123618       -3.4769941785        0.5814871385
 H         0.5866364460       -2.1624634254       -3.0651305148
 H        -1.1264554898       -2.7260804975       -2.6444545343
 H        -0.0960856421       -1.5563895595       -1.6207916047
 H         2.2615619882       -4.1785856079       -3.7893236377
 H         0.5868444432       -4.9394167652       -3.6204783360
 H         1.9350235961       -5.9700154265       -3.3098046640
 H         2.7410987458       -6.2120207381       -0.6853389465
 H         1.5771062655       -5.3033068515        0.3339944582
 H         0.9997996785       -6.2346727797       -1.0479773141
 Na       -2.4264433694       -3.0757920122       -0.1931251780
