155

 C        -6.6955114215       -2.8273488362       -2.0555708302
 C        -5.2654358496       -3.3801017909       -1.8590551323
 C        -5.1059691584       -4.8858973540       -2.1519696075
 C        -4.9374224472       -5.6054996974       -0.7117476891
 C        -6.0362227649       -6.5771249502       -0.2074658789
 C        -6.1335614840       -5.5234758857       -3.1102294560
 C        -3.6955654137       -5.0421556308       -2.8715033675
 O        -4.4381088494       -2.6048090729       -1.4549131281
 O        -3.9314711653       -5.4580382379       -0.0209708996
 C        -6.2561217334       -6.5147472711        1.3836014430
 C        -6.6569292435       -5.0477787926        1.8822108503
 C        -7.0115661515       -4.8000813453        3.3302527625
 C        -5.5995440958       -4.1982496041        3.9963064150
 C        -5.4738359374       -2.6079452455        3.9933586301
 O        -6.7159214615       -4.1577699762        1.0395056278
 O        -4.6982107929       -4.9639465942        4.3826771685
 C        -8.0854017180       -3.7360073755        3.4345955374
 C        -7.4547609909       -5.9730436193        4.2711621513
 C        -4.0012589173       -2.2327968320        4.1778191404
 C        -3.1601979059       -2.3693976293        2.8479433940
 C        -1.5886557277       -2.0282652798        2.9196626322
 C        -1.2522996388       -1.1911971633        1.6763963138
 C        -0.7997967253        0.2331718883        1.7291694868
 C        -1.0130659178       -1.4614593719        4.2820961756
 C        -0.8609440876       -3.4281755649        2.8172881418
 O        -3.6715499594       -2.4707001064        1.7646972971
 O        -1.5275511375       -1.7243891246        0.5960371602
 C        -1.7194882577        1.2112213613        1.0228563533
 C        -1.3923258215        1.4568148257       -0.5408283481
 C        -1.4381027948        2.8946552742       -1.2276697457
 C        -0.5362171246        3.8467459368       -0.3338776712
 C        -0.2894883460        5.3378495833       -0.7416035359
 O        -1.0955944406        0.4501444875       -1.1744520564
 O        -0.0648824346        3.4909796066        0.7600313435
 C        -1.1452860427        2.8680230323       -2.6693512905
 C        -2.8536765894        3.4977947577       -1.0614158798
 C         0.9236265819        5.9102268484        0.0202533814
 C         1.0841695103        7.3951992731       -0.6340905598
 C         2.5578326957        7.9248449207       -0.5616437227
 C         3.4054184071        7.1383997918       -1.6338128499
 C         4.6927967132        7.8229311194       -2.1789616025
 C         2.5352712578        9.4362846336       -0.8844952673
 C         3.3293226115        7.7825832893        0.8307624395
 O         0.1380424262        7.8711770612       -1.1367827248
 O         3.0314954589        6.1045759250       -2.1060649349
 C         5.9996061465        6.9432602091       -2.0429290468
 C         5.8611136881        5.7209527437       -2.8917190130
 C         6.2349847451        4.3348620818       -2.1233587787
 C         5.3506337255        4.0208755542       -0.9047195443
 C         4.2715853518        2.9732413483       -1.0112906022
 O         5.5819499576        5.7581160305       -4.0615758697
 O         5.6070349827        4.6696743720        0.0973980605
 C         6.2987430192        3.1388290032       -3.1453027543
 C         7.6317805638        4.6165666322       -1.5647313856
 C         3.9184413421        2.5663743418        0.4200505618
 C         4.3537704056        1.0850755833        0.6832584070
 C         3.8909633009        0.3087450912        1.9150552195
 C         3.2166989587       -1.1289979498        1.3006054731
 C         4.1318784661       -2.1643914487        0.7993627443
 C         5.1369337710       -0.0179195408        2.7768771730
 C         2.8580615407        1.1270776084        2.7161040765
 O         4.7373315964        0.4311880781       -0.2767343930
 O         2.0628545502       -1.2927518854        1.5558896208
 C         3.3135497023       -3.3729430387        0.1873297297
 C         2.7805859345       -3.1003916413       -1.2465403018
 C         1.9045570997       -4.3145538897       -1.8193522505
 C         0.3163826537       -3.7907824698       -1.6802055150
 C        -0.0694024381       -2.6230500601       -2.5083223679
 O         3.0305711610       -2.1464352606       -1.9665074566
 O        -0.4608485475       -4.3182708736       -0.8386559304
 C         2.2447381496       -4.4862770953       -3.3433433033
 C         2.1118645376       -5.6094112681       -1.1600393758
 H        -6.9218870547       -2.2835755939       -1.1735164300
 H        -6.8130116658       -2.1423614511       -2.9558122922
 H        -7.5288476848       -3.5621130319       -2.1360906960
 H        -7.0103183450       -6.4503103510       -0.7482197349
 H        -5.8799099529       -7.6253932938       -0.4248175414
 H        -7.1422779862       -5.7443867938       -2.7714763054
 H        -5.7464709415       -6.5611463581       -3.2917500300
 H        -6.2869889854       -5.0656733092       -4.1023991888
 H        -2.9929296461       -5.5424704501       -2.2693407769
 H        -3.8167192670       -5.4992281123       -3.8015714203
 H        -3.3181445528       -4.0252834076       -3.0092353621
 H        -7.1207244451       -7.1834479164        1.6909257555
 H        -5.5184441156       -6.9642646389        1.9794650998
 H        -5.8548260690       -2.3789893286        2.9944390038
 H        -6.0278352683       -2.0989745610        4.6803857215
 H        -7.9754390481       -3.0225415102        2.5748081247
 H        -8.0454337095       -3.4245389880        4.5085764040
 H        -9.0657127908       -4.2378974395        3.1888708413
 H        -7.6963721673       -5.6932837708        5.2927999139
 H        -8.4185466856       -6.3741276876        3.7610776385
 H        -6.7037385786       -6.7627229785        4.2820378851
 H        -3.3176907412       -2.7228900475        4.8425862057
 H        -3.9983582339       -1.1703679597        4.4106841250
 H        -0.8553494989        0.5659100758        2.7551207728
 H         0.1922825735        0.3985184091        1.3091337432
 H         0.0854488144       -1.6018483070        4.3474571130
 H        -1.3368794945       -2.0721014768        5.1733342464
 H        -1.4444405641       -0.4906306873        4.3734371467
 H        -1.1375343787       -4.1680465855        3.6146757798
 H        -0.9385465586       -3.8640829300        1.7966364649
 H         0.2758248919       -3.3242930366        2.9791688227
 H        -2.7707280718        0.9581029797        1.0555981971
 H        -1.7487553791        2.2319674464        1.4791471803
 H        -0.2673187905        5.4728616391       -1.7822241972
 H        -1.2095668665        5.8283168579       -0.5419317596
 H        -1.3760283428        3.8019813352       -3.2147030947
 H        -1.4624196996        1.9293140109       -3.1700671008
 H        -0.0486410482        2.7412905395       -2.8348653577
 H        -3.6249937169        2.7278468082       -1.1207652680
 H        -2.9149894400        3.8808094737       -0.0520366676
 H        -3.1539778827        4.3925689708       -1.7656772401
 H         1.8298816802        5.2676222199       -0.0940425361
 H         0.6510471145        6.0089983602        1.0544111720
 H         4.5675276929        8.0111143395       -3.2287476461
 H         4.8486575313        8.8389556972       -1.7745371090
 H         1.8478675567        9.9197842491       -0.2025148903
 H         2.3411530929        9.5831423354       -1.9423711581
 H         3.5822575734        9.9392061567       -0.6962379188
 H         3.3245768516        6.7667643809        1.2757048960
 H         4.2297545377        8.2554975259        0.6302746417
 H         2.8025252600        8.3667091590        1.4825937738
 H         6.7871114687        7.6593650229       -2.5080507426
 H         6.2098103125        6.7713713859       -1.0156478935
 H         3.6380683309        3.6014897156       -1.5650782765
 H         4.6687361473        2.1412719669       -1.5492501779
 H         6.6858758599        2.2387937841       -2.7859197574
 H         6.8602982099        3.5085453584       -4.0848433615
 H         5.2698222222        2.9007546224       -3.4491020631
 H         8.4152843879        4.7856862245       -2.2601457828
 H         7.6502774261        5.3957493094       -0.8744614065
 H         8.0472383912        3.7946575848       -1.0181822370
 H         2.8432084662        2.5430757544        0.6196190624
 H         4.3276145601        3.3477974367        1.0406383120
 H         4.9543353858       -1.7371582118        0.1525408113
 H         4.6660516873       -2.5162364679        1.7282831366
 H         5.6734849067        0.8619639207        3.1747844024
 H         5.8534015762       -0.4166627113        2.0535843330
 H         4.9002965711       -0.6841234705        3.5484941778
 H         3.3624033104        2.1018676860        2.9998494361
 H         1.9092113737        1.4150900441        2.2263656802
 H         2.7415911354        0.5232231696        3.6103928622
 H         3.9080991022       -4.2948132758        0.0067522456
 H         2.4555656556       -3.7335214343        0.7493967991
 H         0.6272068740       -1.6995242082       -2.6606701216
 H        -0.4473068917       -2.9050375482       -3.5623578461
 H        -0.7991128977       -2.1456944619       -1.7549613817
 H         1.5833382965       -3.9095405243       -4.0621166952
 H         1.9454680555       -5.4882970162       -3.4544511192
 H         3.1173481461       -4.0658978718       -3.6843293334
 H         3.1689245909       -5.8775841360       -1.3701815962
 H         1.8894589127       -5.5974514394       -0.1575310250
 H         1.4490960316       -6.4066325215       -1.6110916705
 Na       -2.5671289470       -3.4293834291       -0.2715690593
