155

 C        -7.0519672497       -3.9434644468       -2.3679714692
 C        -5.5002389441       -4.3421189293       -2.0276634074
 C        -5.0853208631       -5.8441938705       -1.9826912278
 C        -4.7984755642       -6.2510764039       -0.5437654653
 C        -5.7737536160       -7.2452087542        0.3176068413
 C        -6.1822437088       -6.7829955956       -2.5419561000
 C        -3.7644378340       -6.0909115602       -2.8021273834
 O        -4.6972566339       -3.4421288047       -2.0112194116
 O        -3.7992801192       -5.8849319665       -0.0419146816
 C        -5.9361313777       -6.7592232748        1.8222914456
 C        -6.7525008839       -5.4138945244        1.8376326213
 C        -7.1684085063       -4.9479894644        3.1874283688
 C        -5.8745525584       -4.1354223886        3.6086206248
 C        -5.6727802208       -2.6368560849        3.3433498791
 O        -6.8954383016       -4.6567873172        0.8527251712
 O        -4.9936499393       -4.8693939838        4.0999420786
 C        -8.4346096667       -3.9878317522        3.1677753379
 C        -7.4433449452       -5.9289438511        4.4019116557
 C        -4.1997942683       -2.2027816847        3.5744358028
 C        -3.2149084624       -2.5384297772        2.4302589383
 C        -1.7701152072       -2.0714460946        2.4536917729
 C        -1.5572862391       -1.1263284598        1.1078958266
 C        -0.7309443398        0.1266343777        1.1116702645
 C        -1.5198585901       -1.3580646712        3.7450342690
 C        -0.6334585868       -3.1265066184        2.2325913543
 O        -3.6469147618       -3.3142153229        1.6259362701
 O        -2.1816834089       -1.4675608450        0.1496655111
 C        -1.5620185878        1.3782737268        0.4928744632
 C        -1.7158422220        1.5907350066       -1.0991051966
 C        -1.2370070722        3.0153557836       -1.5798856655
 C         0.2320515200        3.3583132994       -1.2359534852
 C         0.8191171346        4.6978367649       -1.5027446023
 O        -2.1465856394        0.7685418173       -1.8971599681
 O         0.8670656099        2.5155468450       -0.6143411338
 C        -1.4343587015        3.1382995861       -3.1090636569
 C        -2.0484828008        4.1045596533       -0.8357429252
 C         1.1635919172        5.6367772552       -0.3889139460
 C         0.7567982484        7.1024249721       -0.6724573197
 C         1.9507129102        8.1623402615       -0.5511172926
 C         3.1740060154        7.7315951412       -1.5767498614
 C         4.5750448748        8.4191185338       -1.2787962199
 C         1.4550539781        9.5604741500       -0.9258195764
 C         2.4045479684        8.2321179876        0.8918129256
 O        -0.3250907198        7.4331508779       -0.9531604791
 O         3.0345426976        6.8996015967       -2.4002521468
 C         5.5964479753        7.4062961326       -0.5878575608
 C         6.1836054944        6.4808581703       -1.6851484755
 C         6.5975009892        5.0040932168       -1.2482169450
 C         5.3289415857        4.1767334478       -0.6837739447
 C         5.3606084533        2.6102129706       -1.0619084167
 O         6.1397079723        6.8727506918       -2.8528819478
 O         4.5230797607        4.6090964868        0.1351527017
 C         7.2892370513        4.2981199162       -2.4155541153
 C         7.4602147162        5.0626615597        0.0218267025
 C         4.3023490318        1.8058748511       -0.2965838686
 C         4.9582298169        1.0472813321        0.8296719016
 C         4.0018311442        0.4585577463        2.0176839426
 C         3.3532261023       -0.8688761579        1.5238744199
 C         4.2228539726       -2.1189896360        1.2021861255
 C         4.8616560011        0.2025419538        3.2339864729
 C         2.7854312747        1.4109745438        2.3931080423
 O         6.0997447418        0.7708818271        0.9161876334
 O         2.1038615853       -1.0434944071        1.4947823538
 C         3.5040027768       -3.2479980537        0.5136155161
 C         2.7771023367       -2.7218115814       -0.7264479787
 C         2.0020523233       -3.8006610063       -1.7340644682
 C         0.4900449393       -3.4827044868       -1.5746200078
 C        -0.0388459387       -2.2114970138       -2.2899678825
 O         2.7109684540       -1.5425641532       -1.0077431491
 O        -0.3598137020       -4.2115706348       -1.0704246568
 C         2.6182197417       -3.5771300997       -3.1095146560
 C         2.3479299351       -5.3723716207       -1.3146366749
 H        -7.6565393946       -4.0237885695       -1.3949995429
 H        -7.2006603925       -2.9337935765       -2.7334804410
 H        -7.4692183437       -4.6133274613       -3.1046681267
 H        -6.8069534333       -7.3027472755       -0.0828034289
 H        -5.3108608613       -8.2211826303        0.4467755424
 H        -7.1691487253       -6.6552861345       -2.0012115658
 H        -5.8719893036       -7.8103825346       -2.4327588026
 H        -6.2424379975       -6.4711120180       -3.6079210168
 H        -3.6862746783       -7.1306162909       -3.0489860260
 H        -3.7113092991       -5.4763499886       -3.6612799559
 H        -2.9217228888       -5.9154571821       -2.1743585519
 H        -6.5144433231       -7.4797570435        2.3354434316
 H        -4.9664515281       -6.4222223993        2.2275042885
 H        -5.8960817626       -2.3707893056        2.2707746915
 H        -6.3165424659       -2.1174750922        4.1178383916
 H        -8.1763431893       -3.2402395662        2.3818531788
 H        -8.6390708482       -3.6443212442        4.1649026477
 H        -9.3433262257       -4.5028486158        2.7903447811
 H        -7.5958028909       -5.4136357140        5.4016324352
 H        -8.3026150272       -6.4783110946        4.1380181130
 H        -6.5391517426       -6.5702452928        4.4716038897
 H        -3.7286271403       -2.7118146547        4.4488567568
 H        -4.1833174949       -1.1678222256        3.7876270164
 H        -0.4088644131        0.4307684963        2.1764605623
 H         0.2554732281        0.0200718228        0.6075894027
 H        -0.4470478416       -1.0370796158        3.8323537098
 H        -1.7178021098       -1.9762853414        4.6425061795
 H        -2.1662782401       -0.4032227550        3.7582404727
 H        -0.4917342377       -3.9572160996        3.0027581187
 H        -0.9301942837       -3.6051864721        1.3107813716
 H         0.3732560336       -2.6443244323        2.0943687900
 H        -2.6217700749        1.2184392930        0.8336404702
 H        -1.1823616641        2.3243749513        0.9261781232
 H         1.7606328849        4.5381949424       -2.1050029877
 H         0.2279674220        5.2134875888       -2.2913203324
 H        -0.9473814137        4.1030212197       -3.3780849077
 H        -2.5021947005        3.1153100454       -3.3887875335
 H        -0.9052122780        2.3001837330       -3.6376105046
 H        -3.1710434699        4.0711548414       -1.0866196697
 H        -1.8515386259        4.1957177554        0.2133526463
 H        -1.6705089135        4.9931839942       -1.2899416803
 H         2.1984924273        5.5891457228       -0.1070627634
 H         0.4954040596        5.4461170457        0.4679527509
 H         5.0370152401        8.5500599638       -2.2295904772
 H         4.4664122997        9.3711502032       -0.8195650099
 H         0.7696070065        9.8976183534       -0.2037842246
 H         1.0050620185        9.5765156090       -1.9459094998
 H         2.1549003871       10.3568821806       -0.9292480510
 H         2.4254535894        7.3161479287        1.4908786398
 H         3.4205547139        8.6385936913        0.9020860802
 H         1.9279485935        8.9347230727        1.5815104121
 H         6.3528322208        7.9742643328       -0.1364200368
 H         5.1058638662        6.8615464393        0.2439307031
 H         5.1546879473        2.4426693928       -2.1777358841
 H         6.4313423582        2.3680444520       -0.9347460834
 H         7.7355257030        3.3458145204       -1.9935244560
 H         8.0716705237        4.9430305323       -2.6938931312
 H         6.7157431295        4.0546048526       -3.3066937138
 H         8.3854088965        5.6014920602       -0.1463827984
 H         6.8226096430        5.5194877484        0.7761777739
 H         7.7309606846        4.1233568510        0.4681321448
 H         3.8827191786        1.2220063288       -1.0633190840
 H         3.5133416421        2.4584806820        0.0235976079
 H         5.1069661244       -1.8461335329        0.6031816498
 H         4.5919073081       -2.6291963016        2.1765400571
 H         5.0020167513        1.0984085202        3.7836448655
 H         5.8726277218       -0.0620089249        3.0268213094
 H         4.4796852486       -0.5079751772        3.9799199296
 H         3.1608840642        2.1689968088        3.0910076950
 H         2.2992667777        1.9222645713        1.5160023186
 H         2.0726863737        0.7172608435        2.9252822028
 H         4.1503613145       -4.0922914733        0.3669226034
 H         2.7193372388       -3.4813872531        1.2297622626
 H         0.6906800501       -1.3698246915       -2.0008587888
 H         0.1466466044       -2.5207731083       -3.3951652409
 H        -1.0744227038       -1.9068463917       -2.4301542761
 H         2.3995178756       -2.5741270027       -3.3293217521
 H         2.0430634763       -4.2038469673       -3.8729027467
 H         3.7402439542       -3.6050898903       -3.2038625251
 H         3.3510599650       -5.6863854409       -1.5769497493
 H         2.3039039036       -5.6011713746       -0.1894453187
 H         1.6431317397       -6.0541545071       -1.6984674950
 Na       -2.8167615690       -3.6816380907       -0.6509948063
