155

 C        -7.0650147728       -4.2158870655       -2.1805364153
 C        -5.5818877744       -4.5035303460       -2.0803921188
 C        -5.0829550181       -6.0175188264       -2.0315215721
 C        -4.7483866620       -6.2727654542       -0.4595293190
 C        -5.5964752598       -7.1976779375        0.3382505259
 C        -6.1816811182       -6.9382675411       -2.5913469038
 C        -3.8150714890       -6.1592982178       -2.9021801691
 O        -4.6962389762       -3.6614967057       -2.0414841704
 O        -3.7152254232       -5.7473103020        0.0269359235
 C        -5.9096400938       -6.7557506852        1.8032301438
 C        -6.6832873898       -5.3549856371        1.7925089819
 C        -7.1617998525       -4.9314277692        3.2547907617
 C        -5.8697707174       -4.1647938536        3.7724145966
 C        -5.6853619303       -2.7129073447        3.2415412840
 O        -6.8051384527       -4.6611226866        0.8195536627
 O        -4.9505764761       -4.7303975127        4.2399377361
 C        -8.3783992986       -3.9403155718        3.0599868356
 C        -7.4928385255       -6.1320418829        4.1157822499
 C        -4.2414726066       -2.2137119258        3.5375774378
 C        -3.3293628765       -2.5345499971        2.3923361722
 C        -1.9419649926       -2.0135654843        2.3780844634
 C        -1.7261160423       -1.0889730480        0.9803456835
 C        -0.9524448276        0.2544309175        1.0010461470
 C        -1.5639440388       -1.1174029732        3.6554605170
 C        -0.9171286030       -3.1012064711        2.3366747162
 O        -3.7404938676       -3.1063562470        1.3914520120
 O        -2.0874603719       -1.5989566181       -0.0632800310
 C        -1.7593606621        1.4265632869        0.5184258844
 C        -1.6630184316        1.6314264283       -1.0165899217
 C        -1.1961884492        3.0139006814       -1.5712888502
 C         0.3229128093        3.2928685394       -1.1225374144
 C         0.8829714758        4.6703930553       -1.5021421079
 O        -2.0823179849        0.7335655811       -1.7233902417
 O         1.0957060296        2.4659911732       -0.7086405416
 C        -1.2369885947        3.0357816095       -3.0628700969
 C        -2.2591867216        3.9293495875       -1.0201709033
 C         1.2701872054        5.5774530763       -0.2814754940
 C         0.9439607250        7.0318217734       -0.6948226025
 C         1.9859784115        8.1550175703       -0.5214735634
 C         3.0917005098        7.8425171951       -1.4799554660
 C         4.4614004527        8.4921584282       -1.2707620697
 C         1.4302948543        9.4426854041       -1.0590481259
 C         2.4783236265        8.2739616553        0.9276229983
 O        -0.2135870541        7.2898451117       -1.0550249956
 O         2.9501602714        6.9034835614       -2.2660173891
 C         5.4039839787        7.4323280621       -0.5396877198
 C         6.0033588607        6.4583071720       -1.5477478942
 C         6.4516416362        5.0257506942       -1.0201564841
 C         5.3280130476        4.0354197756       -0.6754990446
 C         5.2862140285        2.5839176270       -1.2337374811
 O         6.3827004436        6.7860503966       -2.6210009184
 O         4.4301749263        4.4492408915        0.0062897640
 C         7.4103459735        4.5155696293       -2.1385352909
 C         7.3466195527        5.2754451900        0.2635517324
 C         4.3106407677        1.7235414502       -0.4143042221
 C         4.8959450262        1.1254133587        0.8806964200
 C         4.0426932815        0.4416603625        1.9739634387
 C         3.4342220584       -0.9627119813        1.5349763229
 C         4.3773283879       -2.0745014600        1.0778323664
 C         4.9236540417        0.1441562923        3.2558259920
 C         2.8721391109        1.3554071194        2.2880417714
 O         6.0971312317        1.2990809102        1.1240982533
 O         2.2460881472       -1.0505535117        1.6180005197
 C         3.5023403837       -3.2071482201        0.4158890716
 C         2.7439136731       -2.6819962613       -0.7875118802
 C         1.9188459516       -3.6899491728       -1.6804548491
 C         0.4204686551       -3.3429525801       -1.6450235836
 C        -0.0765272193       -2.1021872897       -2.4173340966
 O         2.8094228819       -1.5245941097       -1.1574045038
 O        -0.3558435909       -4.1880488427       -1.1639503574
 C         2.6091081814       -3.5500013832       -3.1146294928
 C         2.1633985404       -5.2201701653       -1.1664398566
 H        -7.6340773969       -4.8120289193       -1.5373180403
 H        -7.2511231930       -3.1512180618       -1.9740761464
 H        -7.3501897579       -4.2523768859       -3.2517201173
 H        -6.5857693794       -7.4398852620       -0.1290301727
 H        -4.9386202681       -8.1006776014        0.4033311051
 H        -7.0008282045       -6.8147911272       -1.9487942869
 H        -5.9323389703       -8.0186646841       -2.5720300724
 H        -6.2743125583       -6.6989793260       -3.6323965458
 H        -3.1319318249       -7.0091489036       -2.6811537409
 H        -4.2469468421       -6.2002970020       -3.9434614478
 H        -3.1224929423       -5.3125695162       -2.8313839712
 H        -6.6193082272       -7.5391579079        2.2270955757
 H        -5.0055558557       -6.4547438054        2.3502290230
 H        -5.8738878229       -2.6175167088        2.1680624665
 H        -6.3991409652       -2.1960473640        3.8526629230
 H        -8.2270304322       -3.3179352657        2.1931887738
 H        -8.5749899383       -3.3114883074        4.0205641513
 H        -9.2980270190       -4.4973098441        3.0352963705
 H        -7.8913775678       -5.7901145156        5.0302368074
 H        -8.1710806698       -6.8888206434        3.6011687471
 H        -6.5299258747       -6.5128582933        4.3490215114
 H        -3.9297668931       -2.8021878636        4.4535566307
 H        -4.1165593696       -1.0792424940        3.8079268681
 H        -0.6056346401        0.5669570976        1.9318073346
 H        -0.0105882307        0.1715681538        0.4774815974
 H        -0.5374714172       -0.7590677069        3.6477021424
 H        -1.6848441720       -1.6955411922        4.5617169938
 H        -2.1425569361       -0.2196429668        3.7317169728
 H        -1.1072658421       -3.8349899883        3.0907612776
 H        -0.9946439082       -3.6669183359        1.3618971576
 H         0.0913689750       -2.7304953773        2.4647255749
 H        -2.8014111247        1.3549615066        0.8314966105
 H        -1.3601579168        2.2985635614        1.0506099269
 H         1.7328670805        4.5115788062       -2.1677889426
 H         0.2469961914        5.2413126200       -2.2195088037
 H        -1.1712975065        4.0882853659       -3.3421931895
 H        -2.1845787852        2.5965161151       -3.4526310238
 H        -0.3771108938        2.5019629300       -3.4292558331
 H        -3.1192716801        3.8890214962       -1.5623241065
 H        -2.5246839975        3.5217493609        0.0018748256
 H        -1.9868956037        4.9935460859       -0.9418427400
 H         2.3729163297        5.6047721354       -0.1451868378
 H         0.7481102581        5.3782538174        0.6474874987
 H         4.8736724918        8.7802001636       -2.2629039830
 H         4.3923130233        9.4465449365       -0.6889425333
 H         0.3370510786        9.7990354325       -0.8317176976
 H         1.5972343417        9.5730067742       -2.0990290495
 H         2.1009832959       10.2298841939       -0.6786683673
 H         3.2095891562        7.5589390112        1.2497317786
 H         2.8124665946        9.2757782889        1.2908522170
 H         1.6525965187        8.1732509999        1.6717138228
 H         6.1287738188        8.0746966564        0.0756121738
 H         4.8160019194        6.8884297381        0.1777747360
 H         5.1769099128        2.7410741031       -2.2782822186
 H         6.3113353447        2.2293228624       -1.1550782324
 H         7.8118794643        3.5454813123       -2.0184457467
 H         8.1336935256        5.2909816879       -2.3827180219
 H         6.7756195999        4.4846354618       -2.9986183575
 H         8.1363853918        5.9280482169       -0.0816222897
 H         6.8353423048        5.6575565862        1.1259835062
 H         7.7138447421        4.3154028887        0.5472641992
 H         3.8583233678        1.0441766740       -1.2410240890
 H         3.4695918747        2.4303144414       -0.1154384050
 H         5.1115020516       -1.7060238603        0.3710958924
 H         4.9349915690       -2.4035544723        1.8802864858
 H         5.4053546446        0.9813070064        3.8000728304
 H         5.6868631940       -0.6573607606        3.0903307655
 H         4.3462647977       -0.2746125299        4.0481950926
 H         3.3427047687        2.2547750203        2.6926532663
 H         2.3651769381        1.6014809329        1.3795816226
 H         2.2318761521        0.8911380096        2.9992818820
 H         4.1765842552       -3.9783480717       -0.0260227861
 H         2.8798634703       -3.6283884114        1.2128201397
 H         0.5331194010       -1.2872642928       -2.3216047044
 H        -0.4559132250       -2.2998745148       -3.3235746785
 H        -1.0529396938       -1.9109357449       -1.9934618890
 H         2.1952351574       -2.6019711813       -3.5785435046
 H         2.2676450312       -4.2740717561       -3.8060127145
 H         3.6289600122       -3.2941037412       -2.9274198487
 H         3.2195135308       -5.5582278766       -1.0206886403
 H         1.5967234301       -5.4181020136       -0.3035845683
 H         1.7610814790       -5.9895353032       -1.8879676979
 Na       -2.6653233007       -3.8007894448       -0.4834130357
