155

 C        -6.2809409103       -4.9904450713       -2.3922256329
 C        -4.8112305829       -5.0310001638       -1.9813964543
 C        -4.1062518227       -6.3615638155       -1.8615141965
 C        -3.7405591971       -6.5410481181       -0.3151301497
 C        -4.4196397921       -7.5335203266        0.6863200839
 C        -4.9921038329       -7.5104461247       -2.4603308426
 C        -2.7434368248       -6.3394427777       -2.6308120249
 O        -4.2934058174       -4.0139078121       -1.5694888528
 O        -2.8946376835       -5.8167460743        0.2080467398
 C        -4.9779515534       -6.7542086245        1.9101500056
 C        -6.2840758974       -5.9175079885        1.5799265178
 C        -6.8984233026       -5.0628377515        2.7177569168
 C        -5.9036347597       -3.9531860261        3.2716953484
 C        -6.1469320823       -2.4734562243        2.7514751193
 O        -6.7650939899       -6.0663758027        0.4704274484
 O        -5.0677082138       -4.2114388529        4.0712294001
 C        -8.2478090845       -4.4433362015        2.1517918404
 C        -7.1669178496       -6.0074913127        3.9385067111
 C        -4.8923086386       -1.6148249441        3.0756265544
 C        -3.6728783883       -2.1303270190        2.2199159540
 C        -2.3067022227       -1.5737029099        2.4182831786
 C        -1.9995584187       -0.6576778301        1.0688749830
 C        -1.5768258167        0.7725754426        1.1326667414
 C        -2.0749405219       -0.8055091522        3.7052157851
 C        -1.2921316926       -2.7654977071        2.5504367719
 O        -3.8448455284       -2.9443276751        1.3227714546
 O        -2.1740499996       -1.2503086665        0.0032621886
 C        -2.3151726281        1.6655159629        0.1317454969
 C        -1.6985867990        1.4848390361       -1.4041216557
 C        -0.8669054436        2.7379810343       -1.9952322580
 C         0.2015354486        3.1635033291       -0.9651436469
 C         0.9533498103        4.4036370336       -1.3840976099
 O        -1.9940078193        0.5979955514       -2.1651396390
 O         0.3962538243        2.5723672010        0.0902805570
 C        -0.0952043984        2.2396728910       -3.2470195404
 C        -1.9334228550        3.8588655222       -2.1384400621
 C         0.9111666569        5.4484398562       -0.2747784045
 C         0.7304280481        6.9011289251       -0.7863311616
 C         1.7695215562        7.9754245525       -0.5761916298
 C         3.1181774508        7.4079844193       -1.0795882781
 C         4.3979927013        8.3660038988       -1.1081724844
 C         1.3224109429        9.4089783362       -1.1402046100
 C         1.9554973521        8.0424189778        0.9534223676
 O        -0.3126579240        7.1202007674       -1.4358727924
 O         3.3190050686        6.2296443028       -1.3397942773
 C         5.3156918647        7.7697831436       -0.0184849841
 C         6.2417987024        6.6293159223       -0.4846997449
 C         6.4768397191        5.3793459986        0.3892121721
 C         5.0293902977        4.6244422197        0.2346919606
 C         4.9115020905        3.5007616710       -0.7907557192
 O         6.6358563668        6.6115364401       -1.6222690917
 O         4.0394054829        5.0680497864        0.8143759712
 C         7.6757088663        4.5022581455       -0.0128055187
 C         6.6588189410        5.7499631421        2.0209407917
 C         3.7706914697        2.5020985789       -0.3464204757
 C         4.4748977948        1.4330185990        0.5375145366
 C         3.6740433537        0.6437964338        1.7334201125
 C         3.0548951217       -0.5818899094        1.0460801541
 C         3.9084661135       -1.8628896625        0.7721311149
 C         4.7159634346        0.2094381759        2.8006121749
 C         2.5785405540        1.6000448503        2.2420157131
 O         5.6729555310        1.2601464600        0.4560511980
 O         1.8462237909       -0.6099058831        0.9433566272
 C         3.1594916421       -2.9471590010       -0.0769351064
 C         2.5175929841       -2.6217253222       -1.4155351861
 C         1.8358642205       -3.7906784006       -2.1318283897
 C         0.2879201066       -3.6088231013       -2.0362402945
 C        -0.4537801449       -2.6588356588       -2.8567827721
 O         2.7593794881       -1.5786437471       -1.9154634861
 O        -0.3868500034       -4.2826769520       -1.2578079185
 C         2.2078510248       -3.7171124305       -3.6703462561
 C         2.2445818184       -5.1641376679       -1.5790372064
 H        -6.7858546514       -5.5121769881       -1.5333688697
 H        -6.6743511098       -3.9899199997       -2.4420327773
 H        -6.4378528376       -5.5622836744       -3.2699433918
 H        -5.2839562498       -8.0045877836        0.2517747632
 H        -3.6567442189       -8.1379105902        1.1374715375
 H        -6.0339902883       -7.6813193543       -2.1379439421
 H        -4.4571668552       -8.4110683378       -2.2396383999
 H        -4.7725768449       -7.5655125439       -3.5179088721
 H        -2.2378905572       -7.3265937524       -2.6208842360
 H        -2.7468295671       -5.9298185036       -3.6339181811
 H        -1.9137247637       -5.8365461076       -2.0083451744
 H        -5.0435234851       -7.4197264635        2.7323766708
 H        -4.1844591049       -6.1197018942        2.2534381359
 H        -6.4427702637       -2.5901539380        1.6702262338
 H        -6.9857987185       -2.0081676097        3.1902284164
 H        -8.1397429631       -3.8459684308        1.1804731053
 H        -8.8454679647       -3.9198192404        2.8757507684
 H        -9.0174097840       -5.2456060007        1.9850192250
 H        -7.5904975294       -5.6047265087        4.8888366182
 H        -7.7246571665       -6.8417772959        3.6485638538
 H        -6.1762727648       -6.2851723711        4.3049618446
 H        -4.9052644814       -1.6042153635        4.1498345581
 H        -5.1536628907       -0.6128391761        2.8048022176
 H        -1.5228479378        1.1477847141        2.1681233443
 H        -0.5359199172        0.8172447628        0.7745113607
 H        -1.0412889815       -0.5831137962        3.6945482075
 H        -2.3560085948       -1.4735885900        4.4926498503
 H        -2.5846774750        0.1061092854        3.9096975154
 H        -1.4061642861       -3.2995582883        3.5341794570
 H        -1.5271252183       -3.4234184823        1.7386978965
 H        -0.2756196300       -2.3673231444        2.4040315811
 H        -3.3610551497        1.4364225283        0.1206142834
 H        -2.1596881127        2.6856757634        0.4709502697
 H         2.0015112770        4.1665593795       -1.4630508599
 H         0.5618202953        4.7902973969       -2.2782946251
 H        -0.1949492903        1.1370027058       -3.2930554942
 H         0.9351480389        2.5000250439       -3.0798990537
 H        -0.5222170286        2.7104647012       -4.1736828411
 H        -2.7549497439        3.7349420507       -2.9326514617
 H        -2.4111860963        4.1433351180       -1.2424417700
 H        -1.4401234499        4.7343695599       -2.5873899190
 H         1.9510598954        5.4226922146        0.1150527478
 H         0.1754421832        5.2838957148        0.4757958090
 H         4.9595267571        8.3856025728       -2.0392778024
 H         4.1698462038        9.4701898514       -0.8612773305
 H         0.6975719535        9.7902498156       -0.3805759489
 H         0.9604838225        9.3042546385       -2.1033057143
 H         2.2798676577       10.0130554679       -1.2748502973
 H         2.4862455146        7.0834506467        1.2270465198
 H         2.5889627059        8.8499714437        1.1764437008
 H         1.1103869777        8.2208265497        1.5564451859
 H         5.9922136763        8.6209024859        0.3464755897
 H         4.7766457096        7.5115016539        0.8508108676
 H         4.6428686697        3.9631351392       -1.7716352203
 H         5.7017203778        2.7792061132       -0.9972979372
 H         7.6862529434        3.4707781818        0.2458242122
 H         8.5633978153        5.0446744929        0.3644748130
 H         7.7597023454        4.5603222867       -1.1035168058
 H         7.0404225795        6.7283281624        2.0471409476
 H         5.7589970489        5.4867031169        2.4813103009
 H         7.3543483093        5.0665732098        2.5263515008
 H         3.4873944491        2.1125326568       -1.2383256555
 H         2.8581402275        2.9876552984        0.1193359550
 H         4.8915416257       -1.7085968531        0.2184667934
 H         4.0985833919       -2.4804834616        1.7249157333
 H         4.5657125051        0.7181395977        3.7497532821
 H         5.7556476788        0.3786386030        2.4657701385
 H         4.7270671712       -0.8962909443        3.0054694818
 H         2.7556435913        2.6639847403        2.2648446906
 H         1.6422358952        1.4462511832        1.6411673047
 H         2.3125838161        1.1935182457        3.2381271329
 H         3.9826589785       -3.6829760785       -0.1202219677
 H         2.3800476060       -3.3891589959        0.5391584367
 H         0.2647342429       -1.9560178208       -3.2023896895
 H        -0.7575976939       -3.0523033961       -3.8202523245
 H        -1.1683953089       -2.0204176053       -2.3165051797
 H         2.8470140241       -4.5875482907       -3.8987800544
 H         2.5800605710       -2.6628636949       -3.8119476309
 H         1.3832652234       -3.8046919729       -4.4098417890
 H         3.2736004515       -5.2326729412       -1.8999079766
 H         2.2947769942       -5.0831453358       -0.4565461053
 H         1.6221781064       -5.9976664386       -1.8498879600
 Na       -2.4510414644       -3.5643684743       -0.5593045773
