155

 C        -5.6869355153       -5.5834757180       -2.8077934091
 C        -4.2992519209       -5.4843950092       -2.1666318933
 C        -3.5768777485       -6.8061296725       -1.6492553542
 C        -3.6541982440       -6.7958122848       -0.1379533328
 C        -4.3353762911       -7.8438802066        0.7371229704
 C        -4.1011560996       -8.1427207275       -2.2272018248
 C        -2.0204291116       -6.6880131974       -1.9124691280
 O        -3.8869604746       -4.4039979721       -1.8628306590
 O        -3.2986881008       -5.8029132273        0.5038580819
 C        -5.1433750502       -7.2499505241        1.9863646011
 C        -6.1293173766       -6.1427143808        1.5694285803
 C        -6.8680258535       -5.3754094331        2.6823711291
 C        -5.8340672310       -4.2974297216        3.2268718261
 C        -6.1321333222       -2.8562303890        2.8478720959
 O        -6.1855006476       -5.8276911759        0.3799022180
 O        -4.9489168279       -4.6229794392        3.9277965511
 C        -8.0937943190       -4.7836680092        2.0247351753
 C        -7.2713158550       -6.3390322718        3.7632969152
 C        -4.9642952979       -1.8779583618        3.0795010964
 C        -3.6995721553       -2.1965736381        2.2140710690
 C        -2.3666074682       -1.3105600049        2.3109515292
 C        -2.3157057197       -0.5847868590        0.9410545646
 C        -2.1590488087        0.8791891136        0.8457744008
 C        -2.3744761472       -0.3231849241        3.4701984215
 C        -1.0594440410       -2.2317831218        2.4605177974
 O        -3.6396858520       -3.2273424120        1.6006608171
 O        -2.3488286951       -1.3404197666       -0.0074363695
 C        -2.7265301778        1.5413075596       -0.4787745329
 C        -1.7051147488        1.3923124823       -1.6636938822
 C        -1.3132119941        2.7633651089       -2.4008673706
 C        -0.6632264897        3.6654664172       -1.4066489085
 C        -0.4736594695        5.1201652458       -1.8313123775
 O        -1.3265450084        0.2913489935       -1.9714523722
 O        -0.4623607737        3.3500179924       -0.2493615790
 C        -0.3836470550        2.3467359389       -3.5941487130
 C        -2.5607926188        3.4520116757       -3.1320783649
 C         0.6997948933        5.8407681841       -1.1103744845
 C         0.9265914957        7.2856782289       -1.4672927275
 C         1.9825109037        8.1603396357       -0.6269536608
 C         3.4504747832        7.6707874657       -1.0610554617
 C         4.6635912853        8.5029679668       -0.5853621644
 C         1.8109923401        9.6648996703       -1.0873138925
 C         1.7288868425        8.0447526114        0.9218880896
 O         0.1539062347        7.9998532212       -2.1575370437
 O         3.5661562491        6.8515860791       -1.9572998807
 C         5.5044122425        7.9391697638        0.5865982498
 C         6.1060749700        6.6381463985        0.1942126311
 C         6.5816087510        5.5603113783        1.3981102508
 C         5.4563856393        4.5322858166        1.3529556035
 C         5.4518921399        3.6471835470        0.1081527829
 O         6.4218532505        6.3129858451       -0.9199219069
 O         4.5629124956        4.6069392090        2.1733501447
 C         7.9782601826        5.1322810133        0.9628446229
 C         6.6206976057        6.3079281419        2.7215289534
 C         4.0622625216        2.7892196074        0.2242442358
 C         4.1691876541        1.2590546787        0.5923064471
 C         3.2848715993        0.6697994717        1.6855310572
 C         2.6627556095       -0.6639021644        1.1481899368
 C         3.6068808868       -1.7318824151        0.5141938701
 C         4.1834555015        0.2785297942        2.9071396122
 C         2.1378346115        1.5962265109        2.1700768906
 O         4.9665405702        0.6037922977       -0.0419779007
 O         1.4501265176       -0.9351267098        1.2893681635
 C         2.7392243584       -2.8098492419       -0.0850164430
 C         2.6709482131       -2.6614395226       -1.6172224673
 C         1.7801657788       -3.6480483276       -2.6244609585
 C         0.3291975511       -3.4011927638       -2.3137371125
 C        -0.4570249034       -2.3622500761       -2.9993964348
 O         3.4331749820       -1.8684316811       -2.1587587018
 O        -0.2123365282       -4.0683244066       -1.4239588289
 C         2.1682832956       -3.3557507674       -4.0493328216
 C         2.1724999739       -5.1275126097       -2.2929279679
 H        -6.2955220263       -5.6843971449       -1.8696637771
 H        -5.9452739637       -4.6871313630       -3.2907880847
 H        -5.8478061867       -6.4404347052       -3.4870197323
 H        -4.9779973233       -8.5475946478        0.0871871493
 H        -3.6914478185       -8.5111471296        1.3047258153
 H        -5.0882046298       -8.3755064117       -1.8471572439
 H        -3.6106762460       -9.0018292628       -1.7624424075
 H        -4.1688321791       -8.1937901474       -3.3286349163
 H        -1.4082817352       -7.3817702192       -1.2916258440
 H        -1.7593588186       -6.9137625070       -2.9615611645
 H        -1.6151873364       -5.6214376913       -1.8157714909
 H        -5.6073473588       -8.0801623072        2.5451811505
 H        -4.3969031604       -6.8540113800        2.5885885808
 H        -6.4890592873       -2.8170746576        1.8033196332
 H        -6.9361985128       -2.6091039270        3.5567581883
 H        -8.0430189402       -4.1519660878        1.0827543531
 H        -8.5004972679       -4.0083001887        2.6379573322
 H        -8.9038883492       -5.4829592029        1.8215951711
 H        -8.1597355463       -5.9623001898        4.2853477270
 H        -7.5459660572       -7.3599597062        3.4266397145
 H        -6.4327336086       -6.5517465334        4.3741997727
 H        -4.4580979299       -1.8547611779        3.9954930943
 H        -5.2520749793       -0.8154678119        2.7719648962
 H        -2.5870855988        1.3234049495        1.7350219511
 H        -1.0598496817        1.0476780574        1.0314117387
 H        -1.4925781962        0.3377092633        3.4645909845
 H        -2.3017627078       -0.8831161249        4.3761784965
 H        -3.2788711346        0.3538220803        3.4733192580
 H        -1.1430782320       -2.9602996963        3.3318285255
 H        -1.0072657772       -2.7926104285        1.5375526971
 H        -0.1670453191       -1.5389962580        2.5500805005
 H        -3.6050031465        0.9857746172       -0.7906080773
 H        -3.0271823649        2.5268113343       -0.2206944160
 H        -0.3110549501        5.1271020587       -2.9035362682
 H        -1.4314666702        5.6079592199       -1.8174878185
 H         0.3703709123        1.5865150471       -3.2755712727
 H         0.1246977882        3.1858653085       -4.1659847422
 H        -1.0004576317        1.8822612855       -4.3574800102
 H        -3.0355635372        2.6773596633       -3.8564820383
 H        -3.3595338159        3.9520431180       -2.5603900375
 H        -2.2431550560        4.1640967196       -3.8561917783
 H         1.5843678797        5.3015171953       -1.3698000132
 H         0.6954115577        5.7943524962       -0.0636902471
 H         5.3977933332        8.4669282750       -1.4644605321
 H         4.4104443285        9.5676097398       -0.4945693085
 H         1.1432050848       10.2299019440       -0.5342224208
 H         1.5394838725        9.7358127258       -2.0899815031
 H         2.7749571035       10.1656585803       -0.7713663975
 H         1.8724227852        6.9964636490        1.3045714877
 H         2.3939299427        8.7598983322        1.3485169514
 H         0.6952973491        8.3020655503        1.1689170157
 H         6.3987262801        8.5369643923        0.7230869461
 H         4.9218958727        7.8312906086        1.5318636672
 H         5.4164626814        4.2052840223       -0.8164055203
 H         6.4152675743        3.1101388257       -0.0922984230
 H         8.3918888419        4.2546185093        1.4900797800
 H         8.6666490715        5.9189837584        0.9279333977
 H         7.8494019978        4.8860521724       -0.0746929406
 H         7.2185663953        7.1938289868        2.6476472568
 H         5.5910282971        6.6172902075        2.9064180443
 H         6.9371370843        5.5811694663        3.4360451890
 H         3.5652904401        2.7989498597       -0.7890497864
 H         3.4188084058        3.5888220137        0.8312133171
 H         4.1266480873       -1.2290539300       -0.4180092614
 H         4.4044391493       -2.1978449631        1.1589626812
 H         4.5201388760       -0.7383858123        2.6977053980
 H         3.6067294648        0.3124224888        3.8358500646
 H         4.9094402986        1.0428549720        2.9599023600
 H         2.5615152302        2.2966682436        2.9241695302
 H         1.6285804403        2.2190975384        1.3403286559
 H         1.3357165381        1.0535927612        2.6709035227
 H         3.2953521286       -3.7020415230        0.2020939762
 H         1.6980759485       -2.8851625075        0.2725824841
 H         0.1459120710       -1.5413907324       -3.2404271399
 H        -0.8089467411       -2.8136631278       -3.9587180098
 H        -1.3747582862       -2.1048098620       -2.5229607134
 H         3.2042398939       -3.0983058471       -4.0930442124
 H         1.7210338085       -2.4170161491       -4.4826547760
 H         1.7209382639       -4.0906986789       -4.7538181697
 H         3.2554119816       -5.3056574046       -2.4151050420
 H         1.7694405226       -5.5390943780       -1.3096141396
 H         1.6419512359       -5.6906628276       -3.0149636305
 Na       -2.2563839442       -3.7825911766       -0.0900453904
