155

 C        -5.3436165862       -5.8791429211       -3.0671113189
 C        -4.1059956518       -5.6762093169       -2.2446361304
 C        -3.4349815605       -6.9943492262       -1.6106043671
 C        -3.5560647939       -6.8842416427       -0.0042040457
 C        -4.3118026483       -7.9290793068        0.8261198957
 C        -4.0784807860       -8.2575302022       -2.1320713765
 C        -1.9657150467       -7.0266598160       -1.8704165950
 O        -3.5886880649       -4.5967381061       -2.1408683662
 O        -2.8741308743       -6.0464766825        0.5918073093
 C        -5.0703780056       -7.3788049439        1.9765062091
 C        -5.9645064157       -6.2032135317        1.6188205918
 C        -6.8018679697       -5.4341276531        2.6321975793
 C        -5.9390481941       -4.3453917874        3.3235465785
 C        -6.0715373721       -2.8676274643        2.9364810930
 O        -5.9586873186       -5.8978721700        0.4576977402
 O        -5.0807362619       -4.5830492606        4.1093595349
 C        -7.9537984205       -4.8471522535        1.9497142520
 C        -7.3222604541       -6.3344981258        3.8719778526
 C        -4.8273504096       -2.0993796758        3.3794054270
 C        -3.6732158861       -2.4162543995        2.2468267697
 C        -2.4994669448       -1.2994873143        2.2274701572
 C        -2.5622529129       -0.6715533509        0.8343335169
 C        -2.6700159414        0.8240872446        0.7196681066
 C        -2.4559577927       -0.3061320704        3.3485086371
 C        -1.2248620443       -2.1637525544        2.3127393814
 O        -3.7634315961       -3.3347749294        1.4522833816
 O        -2.6156473738       -1.3679162088       -0.1770389162
 C        -2.7521723166        1.3924576067       -0.7479288740
 C        -1.5254979718        1.5922072811       -1.6654510440
 C        -1.4589002084        2.8934151673       -2.5264950916
 C        -0.8814190727        4.0251032623       -1.6024842037
 C        -0.6724988428        5.4856584480       -2.2222858854
 O        -0.6100521641        0.7884628742       -1.5886792796
 O        -0.4861235338        3.7876667951       -0.4326867529
 C        -0.4035698793        2.6764642840       -3.7270981635
 C        -2.8217053621        3.1196177420       -3.2922254660
 C         0.6232506893        5.9988659783       -1.5525302946
 C         0.7923137933        7.5611971928       -1.6470509290
 C         1.9092645669        8.2509731924       -0.8200484569
 C         3.4292614507        7.6907780962       -1.1116192200
 C         4.6543273385        8.3798387616       -0.4094576894
 C         1.6937433864        9.7826638194       -1.0286911949
 C         1.6907429131        7.9529770291        0.7588324117
 O         0.2009535132        8.2232368031       -2.4780804628
 O         3.5044952084        6.6993674172       -1.7764547406
 C         5.1751575884        7.5682614752        0.8429223124
 C         6.1728471116        6.5673574358        0.4800432191
 C         6.6556476411        5.5910927671        1.6750258660
 C         5.4264012997        4.4584675914        1.7110912230
 C         5.3704691547        3.6738712657        0.4654567106
 O         6.6041864521        6.3652285135       -0.6695314376
 O         4.7083813563        4.3666799870        2.6899141597
 C         7.9216034165        4.8187701324        1.2031392696
 C         6.8625825571        6.4882768322        2.9688089822
 C         4.0054434850        2.8893015146        0.2503574279
 C         4.1508750212        1.4420022398        0.7437778727
 C         3.0778044374        0.7243527975        1.6743921475
 C         2.5468778356       -0.5620402308        0.9716725256
 C         3.5209673341       -1.7348717493        0.5404161056
 C         4.0152215495        0.3077676821        2.9294868217
 C         1.9771563026        1.7080486299        2.1467060970
 O         5.0740838144        0.7517734759        0.3782831179
 O         1.3396208317       -0.7684281266        0.9674549491
 C         2.7929927585       -2.7586451201       -0.2245552085
 C         2.8222933622       -2.6391867666       -1.7586144737
 C         1.8487324861       -3.6070006204       -2.6890308374
 C         0.3288041887       -3.2784219759       -2.1092378238
 C        -0.6468327190       -2.4837295924       -2.8248617131
 O         3.5600970997       -1.8253624359       -2.3512288390
 O         0.0252673629       -3.9009880076       -1.0909851531
 C         1.9702699543       -3.4078932161       -4.2313938573
 C         2.3042973653       -5.0380731122       -2.3823306778
 H        -6.0699482645       -6.5307551173       -2.5000082726
 H        -5.7088783321       -4.8779311233       -3.2614559781
 H        -5.0889428401       -6.3089355006       -4.0212355030
 H        -4.9922274229       -8.5331125184        0.2014829871
 H        -3.5683628798       -8.6609116312        1.0836093629
 H        -5.1377172990       -8.3190634246       -1.8496860981
 H        -3.6193423702       -9.1807458856       -1.7812185331
 H        -3.8554725831       -8.3546774075       -3.1947708142
 H        -1.4602647143       -7.9400271265       -1.6404877651
 H        -1.7843128931       -6.7370669607       -2.8547731338
 H        -1.4771006691       -6.2587696467       -1.2254680652
 H        -5.6577157624       -8.1796787310        2.4018619145
 H        -4.4356995941       -6.9649075947        2.6679444423
 H        -6.3712140727       -2.7725697046        1.8877018674
 H        -6.8662755183       -2.4899425303        3.5596049949
 H        -7.7602830862       -4.0408584585        1.1724500339
 H        -8.6880224171       -4.3592320450        2.5481279463
 H        -8.6479989371       -5.5592214571        1.4417731896
 H        -8.0416614505       -5.8676522674        4.6025571475
 H        -7.8518902080       -7.1879867575        3.4583240037
 H        -6.4967170667       -6.6666635017        4.4991713091
 H        -4.4765952947       -2.3391161531        4.3179215586
 H        -4.8643065761       -1.0145964624        3.3289394147
 H        -3.5112226304        1.1160233716        1.3003596277
 H        -1.7227933344        1.1123116664        1.2070885443
 H        -1.4879685414        0.2549872831        3.3684879407
 H        -2.6554853956       -0.8756092818        4.2789926553
 H        -3.3201080168        0.3916229423        3.4028112084
 H        -1.1074308632       -2.6069043071        3.3038722632
 H        -1.4105881756       -2.9911315458        1.6665676095
 H        -0.3725456383       -1.5776209570        2.0188084563
 H        -3.3673567425        0.7058899576       -1.3324661911
 H        -3.2539651714        2.3452394241       -0.6749950738
 H        -0.6140014889        5.4622026032       -3.2898771656
 H        -1.4914385078        6.1482608289       -2.0339386525
 H         0.6497843486        2.6066011800       -3.4373684200
 H        -0.4245068231        3.4591464722       -4.4925815830
 H        -0.5791094715        1.6963090082       -4.1752883434
 H        -2.9987922277        2.2745505905       -4.0166519400
 H        -3.6562643832        3.1878188431       -2.6749326400
 H        -2.7908826092        3.9894287835       -3.9264849780
 H         1.4993357840        5.4649432811       -1.9702858772
 H         0.7479270137        5.7506789116       -0.5263336820
 H         5.5065313760        8.4392391760       -1.1486046678
 H         4.3888617845        9.4104744094       -0.0890987893
 H         1.1504792904       10.0877771783       -1.9210044989
 H         2.6087261114       10.2995621126       -0.9197478556
 H         0.9518205011       10.1426860626       -0.2437998801
 H         2.0742256651        6.8535405251        0.8286375366
 H         2.2033432788        8.6668623398        1.3956168439
 H         0.6437915867        8.0826876346        1.0384370994
 H         5.5572564707        8.2875751707        1.5989312736
 H         4.3582726932        6.9774062799        1.3385889777
 H         5.6206829015        4.3458265726       -0.3424294822
 H         6.1993504523        2.9192855013        0.3432266899
 H         8.1137913430        3.9361619446        1.7710687781
 H         8.7646359160        5.4949934175        1.3253334054
 H         7.9104643632        4.6113622704        0.1430141224
 H         7.6614579365        7.1453269456        2.7278324701
 H         5.9292051118        6.9510550598        3.1994610642
 H         6.9805130133        5.7947044474        3.8004981626
 H         3.7630200610        2.7906783461       -0.8457542337
 H         3.1467841148        3.5233852578        0.7892588702
 H         4.3756549608       -1.2586566915       -0.0653141466
 H         3.9828291332       -2.0580465982        1.4861916014
 H         3.3662744892        0.0460516529        3.7379220939
 H         4.6525466413        1.1527078655        3.1051441984
 H         4.5633805532       -0.5575445579        2.6320143309
 H         2.2564405435        2.3697948184        2.9362857894
 H         1.4584956498        2.2700557182        1.3457775958
 H         1.1562229901        1.0810086079        2.3911336689
 H         3.1203027355       -3.7817015183       -0.1496347136
 H         1.7602173973       -2.6994506587        0.1729066510
 H        -1.0395666566       -1.7282980147       -2.2573655253
 H        -0.3020074952       -2.1126529730       -3.7591495233
 H        -1.3679532416       -3.2325459602       -3.1070269921
 H         2.7459547875       -4.1478963396       -4.5832592434
 H         2.1436170939       -2.3342269814       -4.4892195836
 H         1.1394923151       -3.5756707538       -4.9199564218
 H         3.3686304442       -5.1818360179       -2.3861912358
 H         2.0861075997       -5.2400803921       -1.2725611960
 H         1.6970822549       -5.6935381174       -2.9382637823
 Na       -2.3347989733       -3.7212227351       -0.5071580983
