155

 C        -5.1610803281       -6.1301862530       -3.1678966993
 C        -3.9646850469       -5.8884280895       -2.1833322739
 C        -3.3055890658       -7.1283515946       -1.5069580862
 C        -3.3024255482       -6.8560624096       -0.0150731684
 C        -3.9970729765       -7.7704097100        0.9075086824
 C        -3.9011284241       -8.4576865222       -1.8765691394
 C        -1.7896987308       -7.2095912023       -2.0637423332
 O        -3.5379980709       -4.7722320108       -2.1194497375
 O        -2.6651234747       -5.9244861277        0.4965065249
 C        -4.6335772003       -6.8812786827        1.9773249315
 C        -5.8991139081       -6.1283349206        1.5312276279
 C        -6.8444766531       -5.5336438516        2.6537151216
 C        -5.9414301041       -4.5405990322        3.3654190312
 C        -6.0229986622       -3.1072365298        2.8962611538
 O        -6.0469862319       -5.8840589414        0.3728014135
 O        -5.0822192174       -4.8958231365        4.2007038095
 C        -8.0849338735       -4.8948298094        1.9930981964
 C        -7.3289694318       -6.7215698027        3.5430452078
 C        -4.8427237492       -2.2308722460        3.2801148078
 C        -3.6666616133       -2.3875761948        2.1350180069
 C        -2.4626208881       -1.2986792306        1.8747975153
 C        -2.5872069365       -0.7542867830        0.4826855956
 C        -2.5881273760        0.7197726355        0.3022255019
 C        -2.3202052701       -0.1633597436        2.9501545091
 C        -1.1267999502       -2.2184240345        2.0087801333
 O        -3.8390676578       -3.3072718966        1.3794547356
 O        -2.4690254206       -1.4818232055       -0.5075963311
 C        -2.7734401859        1.2114579400       -1.0469039448
 C        -1.4510053424        1.6865663376       -1.6716348017
 C        -1.3394925906        2.9870389072       -2.5785754514
 C        -0.9343832642        4.2263402777       -1.6344247912
 C        -0.5811091800        5.5750986532       -2.3246964984
 O        -0.4323005617        1.0909381364       -1.4279371144
 O        -1.0640802871        4.1550318626       -0.3868880033
 C        -0.3726019380        2.6509078475       -3.6526688760
 C        -2.6209925050        3.4284005736       -3.2046005130
 C         0.8338275073        6.0200064930       -1.9454230733
 C         0.8180391828        7.6253409673       -1.8910754409
 C         1.7350965760        8.3018173813       -0.8559772643
 C         3.2350509766        7.5633397282       -0.9265094827
 C         4.4589369041        8.1664950480       -0.2408097669
 C         1.8023544067        9.7189001913       -1.2004013575
 C         1.2586577923        8.1586225461        0.5848494460
 O         0.1585796877        8.2394048870       -2.6354586320
 O         3.4232782203        6.5302011454       -1.5065278196
 C         4.9606939886        7.3450722894        1.0310581183
 C         6.2600693637        6.6700620007        0.7908519749
 C         6.7138261841        5.6072326699        1.7033576643
 C         5.5617985458        4.4462749756        1.6058691760
 C         5.2215839366        3.6516636741        0.3112878185
 O         6.9324287878        6.9006275616       -0.2009592609
 O         4.9287717741        4.2094808246        2.6308870479
 C         8.0489094495        5.0493200216        1.3270339605
 C         6.6944839566        6.2269978180        3.1842058870
 C         3.8547046257        2.9209902612        0.4992534606
 C         4.0788824111        1.5279280014        1.1086769397
 C         2.8995351701        0.6971799333        1.8203666183
 C         2.4950729961       -0.4718620640        0.8700074272
 C         3.6050136843       -1.4928128494        0.3670771971
 C         3.5272746792       -0.0079637652        3.0529927509
 C         1.7313510284        1.5256547388        2.2487076754
 O         5.0932431103        0.8261931410        0.9877940078
 O         1.3703620719       -0.6318948927        0.4980527686
 C         2.9587987514       -2.7209087830       -0.2716642081
 C         2.6676887662       -2.4443727579       -1.7480971308
 C         1.7087759523       -3.5666096776       -2.5057780738
 C         0.2494974096       -3.2751516060       -1.9998216149
 C        -0.5268709394       -2.0541106443       -2.5056233438
 O         3.2110796579       -1.6048570831       -2.3809063113
 O        -0.1668088829       -3.9624983061       -1.0900768168
 C         1.8196008190       -3.5008298525       -4.0631285322
 C         2.0928701109       -5.1013279174       -2.1081483334
 H        -6.0584729317       -6.3930225353       -2.5611385351
 H        -5.3360807742       -5.2461483349       -3.8280041160
 H        -4.9302834117       -6.9956198728       -3.6972761725
 H        -4.7038379465       -8.3090251587        0.3522935039
 H        -3.5127513670       -8.5810255188        1.3805240929
 H        -5.0074997339       -8.5024282623       -1.7986176790
 H        -3.3552503745       -9.2456380536       -1.3960528592
 H        -3.7153343423       -8.5760337980       -2.9664363540
 H        -1.1672308692       -7.7569715018       -1.3654541718
 H        -1.7384839044       -7.6533393049       -3.0129824973
 H        -1.3597648276       -6.2167046715       -2.0682396612
 H        -4.8908546191       -7.5622635064        2.7883466259
 H        -3.9261032193       -6.1682091293        2.2865472128
 H        -6.3868486370       -3.0777717039        1.8381885749
 H        -6.7787530706       -2.6236577266        3.4463363335
 H        -8.2309576151       -4.3380853593        1.0878467688
 H        -8.6014781434       -4.3198087423        2.7354735733
 H        -8.9223348802       -5.5987271824        1.8037122835
 H        -7.9119610654       -6.3675811646        4.4441498101
 H        -7.8740630944       -7.4137443296        2.9723446336
 H        -6.4423119682       -7.0944874072        4.0491708957
 H        -4.3998579979       -2.4045713843        4.1873810346
 H        -5.0905873933       -1.1855084855        3.3473903972
 H        -3.2807772005        1.1148365273        0.9861308375
 H        -1.5072793808        0.8821391457        0.5101935209
 H        -1.4213225924        0.4216325957        2.8048118162
 H        -2.1098835564       -0.6898400288        3.9426529016
 H        -3.1052180299        0.5549424405        3.0387713340
 H        -1.0922858937       -2.7376191898        2.9385571117
 H        -1.0664032658       -2.9199053883        1.1799901549
 H        -0.3258680580       -1.5628835346        1.8890767395
 H        -3.2840246755        0.5546898321       -1.7825854925
 H        -3.3411257958        2.1358906516       -0.9270799846
 H        -0.6508140777        5.3810817029       -3.4048533067
 H        -1.2570832573        6.3666983566       -2.0199316161
 H         0.4487128552        2.0555165382       -3.3572985688
 H         0.0300028921        3.4498695396       -4.1892997682
 H        -0.9193634483        2.0360387675       -4.3764630169
 H        -3.2434962414        2.5643514253       -3.4259049573
 H        -3.1634601008        4.0800043716       -2.6299211016
 H        -2.3960157774        3.9855339884       -4.1451474157
 H         1.7359537346        5.5895642870       -2.5698297378
 H         1.0538195289        5.6381336833       -0.9261718417
 H         5.2631449553        8.0977082236       -0.9647303757
 H         4.2460857316        9.2111936750        0.0861494814
 H         2.7805425311       10.2583617996       -0.8845025356
 H         0.8665187100       10.1819188294       -0.8798407627
 H         1.7985813956        9.9700636116       -2.2338829032
 H         1.1189899063        7.0753913009        0.8623708948
 H         2.1062849021        8.4544991250        1.2052896193
 H         0.3937437103        8.7930304118        0.6771109046
 H         5.0651988469        8.0159833708        1.9133926597
 H         4.2070962684        6.6478536149        1.4485770534
 H         5.3398676584        4.3083037101       -0.5338275950
 H         6.0556579958        2.9161070786        0.1997017006
 H         8.5316791698        4.3864951577        1.9942363420
 H         8.7674893653        5.9349615038        1.1510389519
 H         7.8965820054        4.4934431408        0.3803819230
 H         7.2592241904        7.1637564469        3.2231430523
 H         5.6023183430        6.2989315990        3.4055264588
 H         7.1037109246        5.4899854903        3.9871013906
 H         3.3094778185        2.9274312292       -0.5323932972
 H         3.3902435538        3.5930263079        1.2555415639
 H         4.1779659394       -0.9290720106       -0.3629150721
 H         4.3503378158       -1.8200865411        1.0354346572
 H         4.1003211748        0.7100737518        3.5967450948
 H         4.2691081006       -0.6527563770        2.5716180002
 H         2.7608092377       -0.4162010427        3.7266843582
 H         2.0462755602        2.3247810237        2.8721562525
 H         1.2525255387        1.9916051275        1.3627661188
 H         0.9627615887        0.9831970726        2.7919074452
 H         3.6165373583       -3.5324489877       -0.0186776373
 H         1.9773000980       -3.0592803679        0.0554305403
 H        -1.6070575385       -1.8905203128       -2.4680459667
 H        -0.0815427749       -1.2062841799       -1.9416751875
 H        -0.0986863853       -1.8863091951       -3.5325660257
 H         2.8509729429       -3.7256990957       -4.5443457755
 H         1.3389354150       -2.6161400361       -4.4212982269
 H         1.4046212604       -4.3724242014       -4.5063774742
 H         3.0922494732       -5.3890019094       -2.4452144607
 H         2.0510949958       -5.2975858977       -1.0039853462
 H         1.4060278279       -5.7290553863       -2.6678489449
 Na       -2.3505887950       -3.9175295835       -0.2305364371
