155

 C        -5.3571585502       -7.1290706650       -2.7912236685
 C        -4.2536808743       -6.3577066449       -2.1048719338
 C        -3.0471181038       -7.2217663235       -1.4965301449
 C        -2.9462813178       -6.7761914174        0.0578644268
 C        -3.3874232079       -7.8270661820        1.1050401027
 C        -3.2234820789       -8.7513476338       -1.6360111328
 C        -1.7629411491       -6.8181557967       -2.2441610454
 O        -4.1847663464       -5.1589638489       -2.0485847089
 O        -2.4292512514       -5.7203597354        0.3060668436
 C        -4.3651144540       -7.1777993424        2.2031677116
 C        -5.5969771924       -6.4173971742        1.5221230254
 C        -6.5997090949       -5.5354076477        2.4537698099
 C        -5.7210471525       -4.3935738758        2.9929971099
 C        -6.0294783050       -3.0161296617        2.4953738556
 O        -5.8687015824       -6.6785980226        0.3787962482
 O        -4.7333018226       -4.6904214727        3.7049056891
 C        -7.8710910120       -5.3232538670        1.6248181938
 C        -7.0631579798       -6.4636092285        3.6723212562
 C        -4.7625474531       -2.0973185768        2.8057967561
 C        -3.6341690405       -2.3600772986        1.7887634465
 C        -2.4992886007       -1.3478330219        1.7534383444
 C        -2.5753551175       -0.5439978028        0.3269812208
 C        -2.7634063029        0.9541248446        0.3705466859
 C        -2.4816426983       -0.5519185261        3.0663344694
 C        -1.1536258903       -2.0668211571        1.6898330519
 O        -3.6400011392       -3.3690056789        1.0312421643
 O        -2.7247817473       -1.2774344388       -0.6051702998
 C        -2.9390201197        1.5353114747       -1.0218206952
 C        -1.5734012994        1.7275002347       -1.7287579115
 C        -1.3757845451        2.9662059230       -2.8309253470
 C        -1.3358728352        4.3178267815       -1.9245611360
 C        -0.3913590568        5.4634615045       -2.3141293985
 O        -0.6273424444        1.0666232747       -1.4888333880
 O        -2.1880966734        4.4015747438       -0.9985778841
 C        -0.0689431693        2.9039537027       -3.5693144032
 C        -2.5369717098        3.0610435858       -3.7415283712
 C         0.0401062080        6.3959727649       -1.2510161448
 C         0.9703167285        7.3697557057       -1.9614137581
 C         1.7791697408        8.4038519505       -1.0470050472
 C         2.8299641336        7.6042558388       -0.1640801243
 C         3.9252608181        8.2179541600        0.7839328449
 C         2.6763911536        9.4032390128       -1.9089813624
 C         0.8494495106        9.2239404114       -0.0332460123
 O         0.9665850666        7.4471383297       -3.1416790077
 O         2.7706061784        6.4005297932       -0.3219852842
 C         4.5703304503        7.1548005841        1.7063561489
 C         5.9696634923        6.6480058046        1.2494148362
 C         6.4396593712        5.2416834188        1.8522631400
 C         5.2160648314        4.2075307430        1.6545647889
 C         5.0608741367        3.3903746122        0.3953496777
 O         6.7317902555        7.1738669331        0.5138450822
 O         4.3871343738        4.3406214405        2.5497552872
 C         7.7674938540        4.7411011982        1.2457251881
 C         6.7054363478        5.5857265105        3.3778910592
 C         3.7638359364        2.5846544313        0.4791554011
 C         3.9007376495        1.5262999744        1.5233749739
 C         2.6796855080        0.6142656013        1.8935848856
 C         2.7099366826       -0.5201265085        0.8060171541
 C         4.0436793743       -1.0085798946        0.2465497230
 C         2.8253597007       -0.2074852618        3.2794225046
 C         1.3867050264        1.4622651494        1.8866326982
 O         5.0055773083        1.1060637065        1.9044808175
 O         1.6720403068       -1.0128451640        0.4252196952
 C         3.9132655370       -2.3028055015       -0.5774634257
 C         2.9139813231       -2.0406991604       -1.7454906073
 C         2.1314482340       -3.3142504559       -2.2561060072
 C         0.5869992310       -2.8889045391       -1.9648297783
 C         0.1675040686       -1.6640485172       -2.5725747683
 O         2.8572380544       -0.9825472292       -2.2881161092
 O        -0.0712327534       -3.5705379514       -1.2075704163
 C         2.3315686270       -3.5189273261       -3.7726069912
 C         2.4201667448       -4.6994423374       -1.5199881665
 H        -6.0268881213       -7.4719161043       -1.9951357322
 H        -5.9198423365       -6.5555691102       -3.5188378999
 H        -4.8329441256       -7.8959190200       -3.3247796187
 H        -3.9370805658       -8.6134214702        0.5452997352
 H        -2.5306126103       -8.1759480098        1.6192042793
 H        -4.1242498075       -8.9233405281       -1.1411243864
 H        -2.4400107994       -9.2709084928       -1.0719091598
 H        -3.0500843926       -9.0956048448       -2.6339196011
 H        -0.8747274642       -7.2766407293       -1.8271864641
 H        -1.9534466421       -6.9969541760       -3.2590712425
 H        -1.7366065653       -5.7083272927       -2.1425273347
 H        -4.6521588648       -7.8957136025        2.9356420721
 H        -3.8968750728       -6.3816128232        2.6097363182
 H        -6.3872488280       -2.8226002881        1.5547701255
 H        -6.7309359209       -2.4983758396        3.1343738481
 H        -8.0768742943       -4.3075012622        1.2334833619
 H        -8.7832563868       -5.3969492662        2.1284942018
 H        -7.9731907214       -6.0128606376        0.8005078195
 H        -8.0453294211       -6.1706589015        4.0249076258
 H        -7.0854935100       -7.4694143688        3.2500936417
 H        -6.2561512727       -6.4063579499        4.3277100243
 H        -4.3778035244       -2.5912859403        3.6371966930
 H        -4.9153653576       -1.0542132238        3.0538244090
 H        -3.6304915511        1.2327778367        1.0504742714
 H        -1.8850023649        1.3662966477        0.8271872581
 H        -1.6036290649        0.0429044490        3.0528492321
 H        -2.5462113354       -1.1474349655        3.9530315645
 H        -3.3369061154        0.0745852222        3.2311567280
 H        -0.8336459940       -2.4984490996        2.6383936457
 H        -1.2859784645       -2.8898250212        0.9604299026
 H        -0.3471045796       -1.4422128094        1.3223381678
 H        -3.4920745914        0.7831573140       -1.6105216390
 H        -3.4875110684        2.4949553904       -1.1442774611
 H         0.3158601874        5.2003763637       -3.1104570008
 H        -1.0756302011        6.1042380892       -2.9196676518
 H         0.7209851788        3.3374666666       -2.9900000636
 H        -0.1611222513        3.5347004894       -4.4705696619
 H         0.2948402021        1.9569720565       -3.8593222924
 H        -2.4003497875        2.2435929138       -4.4862404616
 H        -3.3734608615        2.9208016573       -3.1635828482
 H        -2.5298938524        3.9768843396       -4.2875736289
 H         0.4437102162        5.8300083931       -0.4217697792
 H        -0.8241888445        6.9995694210       -1.0044336194
 H         4.6855766317        8.7750097017        0.1943312657
 H         3.4579921653        8.9759957592        1.3424748166
 H         2.4256541644        9.4844096495       -3.0263612458
 H         3.6856465137        9.1861550129       -2.0039573622
 H         2.8001443341       10.3665049640       -1.4080981760
 H         0.3266151259        8.4307849770        0.6307584833
 H         1.4157080973        9.8430969991        0.6040889629
 H         0.2005097762        9.8761089774       -0.5551799509
 H         4.7554420257        7.5303571009        2.7076873692
 H         3.8215221460        6.3067657015        1.7976537422
 H         5.1486200722        4.1468113175       -0.4151987448
 H         5.9197694716        2.7543927857        0.4594944412
 H         8.2821625925        3.8885413264        1.6609085888
 H         8.5255657123        5.5758588244        1.3047946960
 H         7.6423993482        4.6142695396        0.1252407340
 H         7.2901571950        6.5494560334        3.4574518198
 H         5.7104952009        5.8469912517        3.8553177739
 H         7.0804882377        4.7367683231        4.0477821765
 H         3.4630875102        2.1139136713       -0.4726351996
 H         2.9128864278        3.3690593407        0.6722069795
 H         4.3799239080       -0.1646121657       -0.4049407590
 H         4.8483924714       -1.2513777935        0.9657271328
 H         3.0179264873        0.4804950677        4.1486732304
 H         3.6580573629       -0.9323386709        3.0940294841
 H         1.9353219738       -0.8119712583        3.5447648888
 H         1.6183723277        2.3746596065        2.4329197062
 H         0.9750437682        1.7047289196        0.8685461342
 H         0.6128651408        0.9265683044        2.3383765682
 H         4.9164219040       -2.4064431712       -0.9658602755
 H         3.7387007638       -3.2338065831       -0.1023549015
 H         0.2046573180       -0.7614195526       -1.9821781501
 H         0.5133030723       -1.6585677970       -3.6163733406
 H        -0.9697328494       -1.7855265784       -2.7240672991
 H         3.4399711300       -3.8480059003       -3.6387789699
 H         2.3778093857       -2.5693479165       -4.3149365169
 H         1.5567616158       -4.0556076453       -4.2225719036
 H         3.4625249401       -4.9337530860       -1.3814218463
 H         1.9707385217       -4.6601442927       -0.4616857393
 H         1.9290038673       -5.5101449425       -1.9788343748
 Na       -2.5340193880       -3.6716487330       -1.0177203788
