155

 C        -5.4909056368       -7.0731425814       -2.5557429819
 C        -4.2126320648       -6.3465835041       -2.0103159428
 C        -2.9801506848       -7.1925948008       -1.4732441755
 C        -2.8555464329       -6.7441210579        0.0635146857
 C        -3.2809408802       -7.7750411213        1.2479794119
 C        -3.1916689046       -8.7822140926       -1.6338104190
 C        -1.7573768530       -6.7605637832       -2.3374655822
 O        -4.0514611942       -5.1237603021       -2.0905132516
 O        -2.3519197794       -5.6595141464        0.3241666947
 C        -4.2757156737       -7.2165865393        2.1815771352
 C        -5.5307926774       -6.6074122378        1.5465939481
 C        -6.5157499668       -5.7020859964        2.4600279500
 C        -5.6354194198       -4.4565629323        2.8069173610
 C        -6.0288669920       -3.0776904590        2.3200835618
 O        -5.6487612049       -6.6144807870        0.3147341234
 O        -4.7531753640       -4.7397785585        3.5631276523
 C        -7.8276854700       -5.3696775691        1.6216299167
 C        -6.9293572512       -6.4915300781        3.7863560154
 C        -4.9427320774       -2.0918263350        2.6062092789
 C        -3.7531649230       -2.3227864011        1.6951195194
 C        -2.4330992361       -1.4609067609        1.6839092929
 C        -2.5612443123       -0.6454637143        0.2895561080
 C        -2.7887227566        0.8855349066        0.3354024944
 C        -2.3815391298       -0.3750764960        2.7893344874
 C        -1.0559469744       -2.1880727788        1.6643645145
 O        -3.8940471666       -3.1216179213        0.8223722766
 O        -2.4412969663       -1.2159688713       -0.8036087758
 C        -3.0302026624        1.5431582745       -1.0764239285
 C        -1.5891084612        1.8431442988       -1.7068113852
 C        -1.4355776393        2.9254456274       -2.7278257737
 C        -1.4525168590        4.3587029114       -1.9175322173
 C        -0.4526191126        5.4312340202       -2.4165842980
 O        -0.5585121553        1.2874449997       -1.1994547659
 O        -2.2744709986        4.5346127608       -1.0788378843
 C        -0.1814870262        2.5073620940       -3.4576441092
 C        -2.6237015066        3.0394659007       -3.7963061177
 C        -0.2268046265        6.6836804589       -1.4456218799
 C         1.0714481817        7.4789145896       -1.8844087986
 C         1.8463754140        8.3352577424       -1.0014893305
 C         2.7838936701        7.4321434777       -0.0226109379
 C         3.7777414692        8.2841218841        0.8839042777
 C         2.7591443209        9.2950821653       -1.8946506679
 C         0.9134737847        9.3363349693       -0.1964688310
 O         1.3949530774        7.4330661933       -3.1078435614
 O         2.6407785357        6.2516566753        0.1762090814
 C         4.6289862377        7.4565182078        1.8125415856
 C         5.9015115487        6.7089964649        1.2427338133
 C         6.2151483754        5.2937684009        1.9052619584
 C         5.0332456313        4.3807823080        1.7758285597
 C         4.9636342782        3.4896123330        0.3681533725
 O         6.5472123762        7.2873060218        0.3644196692
 O         4.2769049056        4.0746586885        2.6673666040
 C         7.5183043400        4.7969706828        1.2279874531
 C         6.5389509969        5.4865845283        3.3833399247
 C         3.8860986362        2.4437098912        0.4833108932
 C         4.0541118119        1.3646067284        1.5938246318
 C         2.6937065104        0.5239530159        1.8287295603
 C         2.6586056210       -0.5665673855        0.7507510071
 C         4.0286515193       -0.9568499529        0.2274933366
 C         2.8071151219       -0.0683695755        3.2158854061
 C         1.3060025679        1.2878421305        1.7389555629
 O         5.0256198805        1.0613964801        2.1904039692
 O         1.6374290801       -1.1358780367        0.3432388469
 C         3.9787886377       -2.2954848797       -0.5645272441
 C         2.9337782531       -2.1395997500       -1.6238928014
 C         2.1044067548       -3.3898587577       -2.1551647398
 C         0.6863220403       -2.8512781432       -1.9769160706
 C         0.0620249362       -1.6643948766       -2.7223500735
 O         2.7915376315       -0.9935340899       -2.1830615262
 O        -0.0838263872       -3.5092343021       -1.2707075888
 C         2.5294763106       -3.4734687922       -3.7529688549
 C         2.3197386332       -4.6537376318       -1.3989628367
 H        -6.0652302583       -7.4887391936       -1.7340767522
 H        -6.0889058813       -6.3428254170       -3.0896466184
 H        -5.1529859415       -7.7705681336       -3.3790029717
 H        -3.6999343349       -8.6743237940        0.8164294142
 H        -2.2849496085       -7.8836196439        1.7978348090
 H        -4.1208835469       -9.1481848429       -1.1559984308
 H        -2.3370996741       -9.2715005223       -1.1663631935
 H        -2.9554152444       -9.0544404108       -2.6572857315
 H        -1.0168229019       -7.4387096380       -2.0397274962
 H        -2.0037717219       -6.7288547874       -3.3983732485
 H        -1.4780603525       -5.8029765099       -1.9620867864
 H        -4.6912898976       -8.0452494745        2.8094445264
 H        -3.8679761255       -6.3551160519        2.8741426918
 H        -6.1245027023       -2.8991479881        1.2003704251
 H        -6.9745340695       -2.6374506039        2.7351097120
 H        -8.0957340035       -4.3306204038        1.3427682643
 H        -8.8206934841       -5.8492107797        1.9212671636
 H        -7.7260392566       -5.9463312158        0.6917429559
 H        -7.5494154957       -5.7844194873        4.3172251112
 H        -7.5316730820       -7.3011939654        3.3635009607
 H        -6.0159083415       -6.7677122312        4.3754476460
 H        -4.6692017953       -2.1367202091        3.7467831343
 H        -5.1837854687       -1.0341518603        2.3457649199
 H        -3.7000423622        1.1376754932        0.9131699921
 H        -1.9714034305        1.4640757635        0.8980046715
 H        -1.5241538314        0.3160504732        2.6137785204
 H        -2.2876523982       -0.8083199398        3.7861991003
 H        -3.3763010970        0.1057172832        2.9223355779
 H        -0.9021629116       -2.7082837950        2.6015886183
 H        -0.9857342735       -2.9239090864        0.9392794656
 H        -0.2519475065       -1.4638448678        1.5285185864
 H        -3.6146594857        0.8553400041       -1.6698885102
 H        -3.5698391529        2.4682481771       -1.0453115894
 H         0.4681369271        4.9195715480       -2.5976652250
 H        -0.6485280897        5.7100933278       -3.4356723209
 H         0.6015197892        2.2981503573       -2.7326737307
 H         0.2155119476        3.2141638818       -4.1739707467
 H        -0.3805239996        1.5397910069       -3.9324089047
 H        -2.5001037377        2.3030874691       -4.5585904518
 H        -3.6461559165        3.0154037335       -3.2901681962
 H        -2.3893835098        4.0080072124       -4.2175395150
 H        -0.2339529482        6.2805875782       -0.4509130565
 H        -0.9878383257        7.4746160788       -1.5409260545
 H         4.4846604677        8.8813669725        0.2955493845
 H         3.1817514657        9.1156575400        1.4242571304
 H         2.2958339167        9.6098015786       -2.7356439312
 H         3.6118728288        8.7119975444       -2.3617676336
 H         3.2330219320       10.1666825926       -1.3937390422
 H         0.4414994687        8.8188276385        0.5638355174
 H         1.5426005304       10.1242066372        0.3216218202
 H         0.2415508194        9.9045247197       -0.8948538598
 H         5.0979788044        8.1557455373        2.5544105846
 H         4.0006892173        6.7719487010        2.3242651270
 H         4.7286808353        4.2666043423       -0.3474010281
 H         5.9134473788        2.9510765377        0.1459518853
 H         7.6654191898        3.7646252923        1.6343920353
 H         8.4078151925        5.2565233631        1.4896581816
 H         7.4477012940        4.7231983147        0.1789506424
 H         7.3884011759        6.1414545415        3.4851659225
 H         5.7224207102        5.7627928582        4.0228434599
 H         6.7261236398        4.5284421109        3.7709760257
 H         3.6031054748        1.9299349951       -0.4328717853
 H         3.0040204983        3.0549612337        0.5747526015
 H         4.1052393604       -0.0934664326       -0.4725359702
 H         4.8798989429       -0.9603684849        0.9166212982
 H         3.4140037629        0.5882872208        3.8359624944
 H         3.1999536364       -1.0492994592        3.2741989921
 H         1.8296893528       -0.0643569486        3.6649340163
 H         1.3421162553        2.2566058032        2.1928003089
 H         0.9679875222        1.3516657749        0.7600941708
 H         0.5836560375        0.5678866901        2.1623590965
 H         4.8730106339       -2.4670313697       -1.2005913088
 H         3.8818136040       -3.2574761811       -0.0192344472
 H        -0.0369929740       -0.9252259506       -1.9371150879
 H         0.4655861346       -1.3055452081       -3.6362414485
 H        -0.9430039451       -1.8388251159       -2.9184947714
 H         3.1529818604       -4.2900893526       -3.8749640953
 H         3.0131158777       -2.4878455997       -4.0154311502
 H         1.5641704165       -3.3786667105       -4.3698911727
 H         3.3638583282       -4.9484248387       -1.6320674477
 H         2.3274746197       -4.5897558813       -0.3509931209
 H         1.6065977891       -5.4566916514       -1.7577467235
 Na       -2.3278366980       -3.6705288781       -0.9490230123
