155

 C        -4.9611642673       -6.1619633287       -2.9895909559
 C        -3.5847820189       -5.8242117987       -2.5059941352
 C        -2.6931202018       -6.9014442200       -1.8008840257
 C        -2.4917176340       -6.5370877291       -0.3468980228
 C        -2.6846923940       -7.4660513764        0.8547917755
 C        -3.2310623958       -8.2987094472       -1.9811083586
 C        -1.3067545569       -6.8029246384       -2.5505527855
 O        -3.1860945431       -4.6803958629       -2.5378497584
 O        -2.1858433205       -5.4072405920       -0.0337019965
 C        -3.3652789050       -6.7475222417        1.9864865313
 C        -4.8745455349       -6.7081944115        1.8039680528
 C        -5.7949996193       -6.1480321671        2.7949278801
 C        -5.4597893739       -4.5285025794        2.9667913912
 C        -6.1291207989       -3.6073469297        1.9572431379
 O        -5.3336559784       -6.9390788195        0.6634501045
 O        -4.5467574474       -4.2270558303        3.6791711027
 C        -7.3373722343       -6.3553297181        2.3124117878
 C        -5.6357869723       -6.7946824573        4.2606910965
 C        -5.5038953766       -2.2163313930        2.0411304990
 C        -4.2036342643       -2.2453449090        1.3088563608
 C        -3.0355129491       -1.1291303382        1.6037679076
 C        -2.8752211746       -0.3874022067        0.2231786250
 C        -2.7798032847        1.1600774645        0.2538998863
 C        -3.4058136976       -0.1730512045        2.7756125799
 C        -1.8390442023       -2.0066590903        1.9778984555
 O        -4.0177278682       -3.1521473476        0.5172435032
 O        -2.4815530145       -0.9776584133       -0.7992982026
 C        -2.7682563513        1.8948206626       -1.1098491510
 C        -1.3668719057        2.2379481742       -1.7004210340
 C        -1.2197962269        2.9143633285       -3.1915310213
 C        -0.9552093219        4.4378898141       -2.8074674868
 C         0.3086285273        4.8034823374       -2.1744833972
 O        -0.2737066151        2.0488094824       -1.0784432259
 O        -1.8629057367        5.2148095269       -3.1723201234
 C         0.0044254333        2.2374414261       -3.8683757326
 C        -2.4527354910        2.7171659994       -4.1063108388
 C         0.2439945757        6.0821923742       -1.2914181940
 C         1.6769299721        6.8205922162       -1.4028237159
 C         1.8851822309        8.3171691352       -1.0320966428
 C         2.0122780188        8.0802151216        0.5695432447
 C         3.1163144177        8.8448131061        1.3907882230
 C         3.1920845099        8.8593079554       -1.6728025441
 C         0.6875106774        9.1663789827       -1.4068939068
 O         2.5614211101        6.1043806996       -1.7473742060
 O         1.2884841111        7.3516809608        1.1904639678
 C         3.9258896661        7.9151312077        2.2836782043
 C         4.6404512297        6.8414383976        1.4163587697
 C         5.3856851929        5.7105503048        2.2865469612
 C         4.3019702937        4.5825254667        2.3376777430
 C         4.1451089764        3.8028919405        0.9828884025
 O         4.4230710149        6.6743348835        0.2481800898
 O         3.7552421765        4.1480285625        3.3274399249
 C         6.7197793164        5.3263125561        1.6184449898
 C         5.6783479436        6.0732015852        3.7062473416
 C         2.9677627364        2.6909123715        1.0125498803
 C         3.6488063431        1.2437140125        1.6352297654
 C         2.6458371794        0.0962975156        2.0710973185
 C         2.6192035611       -0.9487861292        0.9282265937
 C         3.7864591315       -1.8575483079        0.6377835048
 C         3.0615286729       -0.4850873326        3.4323199808
 C         1.2164714729        0.7643999254        2.2075406769
 O         4.8247410165        1.1232735726        1.7182234024
 O         1.5446416355       -1.0705527822        0.3285291450
 C         3.4100724307       -3.1059064210       -0.1485889246
 C         3.3345382850       -2.8406480128       -1.6470924609
 C         2.3922479687       -3.6210427820       -2.5524051138
 C         0.9392972162       -3.1313324936       -2.1584744238
 C         0.5070387026       -1.6257649125       -2.5669738993
 O         3.8217492362       -1.7838618659       -2.0623208618
 O         0.1484157049       -3.8723035829       -1.5596522627
 C         2.7679514700       -3.2226228735       -4.0692158391
 C         2.4801809888       -5.1232033435       -2.3720279695
 H        -5.5292327270       -6.2498817524       -2.0690005959
 H        -5.3283833757       -5.2708864066       -3.4474536828
 H        -5.0974750063       -7.0814972984       -3.6139148407
 H        -3.2044351298       -8.3808903070        0.6531661757
 H        -1.6322230526       -7.7860146675        1.1889029804
 H        -4.1214576423       -8.5284524751       -1.4345336317
 H        -2.6216510944       -9.0827315189       -1.6570589849
 H        -3.2206235744       -8.6174040151       -3.0003345003
 H        -0.8119510930       -7.6717997193       -2.2276158205
 H        -1.5865272665       -6.8277508146       -3.5981009018
 H        -0.7324500367       -5.8751849136       -2.3587782773
 H        -3.0954014616       -7.1265039853        3.0190883422
 H        -3.0758108624       -5.5847418384        2.0730799047
 H        -6.0781017305       -4.2039111334        0.9594082578
 H        -7.1873800656       -3.5824405102        2.2332010675
 H        -7.7830054040       -7.2224816058        2.7650192663
 H        -7.4060474033       -6.5935970500        1.2421638376
 H        -7.8104648001       -5.4098595993        2.3113089238
 H        -6.0011473160       -6.1493345228        5.0378623530
 H        -6.1828240161       -7.6973886103        4.1698897717
 H        -4.5814323918       -7.0601392206        4.2593349059
 H        -5.5422032951       -1.9760952911        3.1373461174
 H        -6.3342826494       -1.5441447319        1.6303972871
 H        -3.6008401894        1.7079947629        0.7189572853
 H        -2.0454691100        1.6254354734        0.8640741745
 H        -2.6864516054        0.6216677251        2.8881528527
 H        -3.4558572059       -0.7725495342        3.6783788093
 H        -4.4257867265        0.1214876297        2.6964624700
 H        -1.9842063576       -2.7179340556        2.8154339865
 H        -1.3797260180       -2.4994926986        1.1639427249
 H        -1.0603217325       -1.3296947596        2.3800436229
 H        -3.2825455959        1.3359453863       -1.8580740783
 H        -3.2082413007        2.8807405025       -0.9472733609
 H         0.5665796038        3.9920077936       -1.5511261532
 H         1.0719252215        4.9525922905       -2.9029693655
 H         0.8123082470        2.0894273498       -3.1717075571
 H         0.3577162773        2.8413970545       -4.6554296062
 H        -0.4357403751        1.2905941055       -4.2940387766
 H        -2.9052919217        1.7626855681       -4.1680279932
 H        -3.2621321443        3.4432177359       -3.8369411402
 H        -2.0670899034        2.9878015944       -5.0571395798
 H         0.3498136260        5.8486951627       -0.2503296505
 H        -0.5766478187        6.7561130160       -1.4756294809
 H         3.8357939225        9.4623624226        0.7372841080
 H         2.6503748828        9.5816328352        2.1042455904
 H         3.1486331336        8.7718466793       -2.7014836960
 H         4.0459220907        8.3200713315       -1.3032262845
 H         3.3573872102        9.9355355871       -1.2321133037
 H        -0.2018821147        8.9765417052       -0.9516433887
 H         0.9407921285       10.2009737968       -1.0646610101
 H         0.5213126608        9.2728983546       -2.4997720384
 H         4.5049960457        8.5658811064        2.8706502762
 H         3.3373469529        7.2851351776        3.0440010299
 H         3.8106137233        4.2155109373        0.0746148346
 H         5.1353044790        3.3767512831        0.7211330589
 H         6.9685182707        4.2748237965        2.0570914468
 H         7.5609782640        5.9060108471        1.9308078487
 H         6.5679493488        5.2967019507        0.5431344539
 H         6.1751322412        7.0822791090        3.8806883535
 H         4.8093499898        6.0455675401        4.4142588719
 H         6.2582347479        5.3004849024        4.2274805188
 H         2.6318237361        2.5473803123       -0.0892941518
 H         2.1744776046        3.0322856418        1.6948900858
 H         4.5460746095       -1.2263723298        0.0649990052
 H         4.2532106538       -2.0958176444        1.6229232909
 H         2.4304805494       -0.0861929631        4.2487654550
 H         4.1010091924       -0.1815716954        3.6820706242
 H         3.1181565786       -1.5509471711        3.7149476196
 H         1.3091004555        1.6446087170        2.8586010316
 H         0.9438562848        1.0192922986        1.2350149132
 H         0.4439060437        0.0100033463        2.4623593210
 H         4.0803105772       -3.9380446768        0.0588105641
 H         2.4045335095       -3.4524175616        0.1175090211
 H         0.7380507565       -0.7884337708       -1.8118557227
 H         1.2514187428       -1.3612815441       -3.3390952706
 H        -0.5252997883       -1.6198676225       -2.9074819480
 H         3.7157999301       -3.6196114954       -4.2156174625
 H         2.9190018700       -2.1240173195       -4.1000140144
 H         1.8412219397       -3.3992855613       -4.6830904360
 H         3.5585781781       -5.3405480824       -2.2924615130
 H         2.0125089997       -5.5416980690       -1.5211927699
 H         2.1080815382       -5.7419648273       -3.2225837450
 Na       -2.0084609469       -3.2959318400       -1.0520738403
