155

 C        -1.9150531036       -7.8082555825        0.4614873035
 C        -2.1278979171       -6.6409768495       -0.4497118842
 C        -3.6314334914       -6.1885211920       -0.7013666161
 C        -3.9581164914       -5.2409862557        0.4561826099
 C        -4.3520963617       -3.7793899699        0.0109797665
 C        -3.8071961889       -5.5231180130       -2.1436963440
 C        -4.6046777066       -7.4115999536       -0.7812515025
 O        -1.2749069327       -5.9605683559       -0.9853891875
 O        -3.9387818174       -5.6652361333        1.6185747031
 C        -4.6070383282       -2.9553818156        1.3640371200
 C        -3.3003295975       -2.3471567159        2.0081762184
 C        -3.5445462263       -1.3471934170        3.2246178396
 C        -3.5498668540        0.1429000047        2.5527914077
 C        -2.1891957555        0.7360239333        2.0280662913
 O        -2.1944812734       -2.6476170274        1.5730743851
 O        -4.6582924478        0.5862788471        2.3738530508
 C        -4.9561832474       -1.5594446011        3.7701471577
 C        -2.5392246315       -1.6334948402        4.3471246951
 C        -2.3028762025        1.9230461352        1.0435039741
 C        -0.9281689409        2.3268626117        0.5341418591
 C        -0.7633641770        3.4344354892       -0.5766560273
 C        -0.0238129546        4.5854801814        0.1158959373
 C        -0.8848260860        5.7262258722        0.5790775881
 C         0.2156881830        2.8015724248       -1.6052225910
 C        -2.0662391943        3.9239999403       -1.2345718631
 O         0.1050083341        1.9140916444        1.0638080311
 O         1.2004961128        4.6008165822        0.1299736305
 C        -0.3733207504        6.4947216289        1.8366311631
 C        -0.9292342175        5.9187871906        3.1519987222
 C        -0.4625819653        6.5371936463        4.5210996340
 C         0.9054064520        5.9288000910        4.8878975610
 C         0.8438029905        4.5025994924        5.4809778868
 O        -1.8306172866        5.0656160791        3.0685838137
 O         1.9165645959        6.5312474790        4.7380679052
 C        -0.2872167095        7.9964553192        4.4071629585
 C        -1.5759492497        6.2544681175        5.5479648852
 C         2.2512513301        3.8263029174        5.6129320751
 C         2.7927331379        3.6342890692        4.1856000806
 C         4.3629294936        3.6504407587        3.9209087925
 C         4.6499878215        2.4639920454        3.0331984049
 C         6.2329060128        2.1982632622        2.6395430770
 C         4.6005250782        4.8832720974        2.9878536447
 C         5.3246957616        3.5053704015        5.1378255905
 O         2.0713634679        3.4853756693        3.2268348351
 O         3.8196000015        1.5603610422        2.8373044893
 C         6.3205732921        1.2030260083        1.4035336786
 C         5.2836295899        1.5058925753        0.2379285700
 C         5.1777299506        0.5241349857       -0.9601480260
 C         3.6811836223        0.1304695806       -1.2659841157
 C         3.5102556807       -0.9647581321       -2.2310052523
 O         4.6462136772        2.5374991839        0.1570387937
 O         2.7725778923        0.6667744583       -0.6844925978
 C         5.6953192610        1.5072840989       -2.0993178730
 C         6.1085384223       -0.7266878562       -1.0046150334
 C         2.0362760400       -1.2135375453       -2.6957190807
 C         1.7693225747       -2.6638703146       -3.1992584629
 C         0.3833271210       -3.2137724296       -3.3834616484
 C        -0.3359220040       -2.3433252080       -4.3968417366
 C        -0.9129606964       -2.7608489304       -5.8031586028
 C         0.4291407944       -4.6330236148       -4.0048792601
 C        -0.2570786195       -3.1930554554       -2.0672389188
 O         2.7616445049       -3.3312816877       -3.4320301450
 O        -0.7129239885       -1.2536256310       -3.9387169561
 C        -2.4179133514       -3.1191454329       -5.6358689038
 C        -3.2057597434       -3.2453127243       -6.8980189597
 C        -4.7617217544       -3.5295461533       -6.7355120137
 C        -4.9286640868       -5.0663899515       -6.9165408125
 C        -4.7856890615       -5.6456854635       -8.3477103551
 O        -2.6827128839       -3.2652886161       -8.0036072691
 O        -5.1286184178       -5.7518999218       -5.9456646839
 C        -5.3979902623       -3.0310046904       -5.3721915952
 C        -5.5660133935       -2.8194911046       -7.7897293084
 H        -2.4701248080       -8.6632271048        0.0722776540
 H        -0.8491681916       -7.9695623901        0.4919265422
 H        -2.2143509094       -7.5836081794        1.4930776522
 H        -3.4535362410       -3.1997650671       -0.4512289367
 H        -5.3181369455       -3.7973743730       -0.4760523154
 H        -4.4098413188       -6.1351307785       -2.8292010892
 H        -2.8505733601       -5.1886413616       -2.5003902322
 H        -4.3287633928       -4.6218711648       -2.0737352662
 H        -4.5644252769       -8.0045966074        0.0808862179
 H        -5.7088481653       -7.0685702609       -0.9501577538
 H        -4.3652747075       -8.2233084806       -1.5682121219
 H        -5.3666858161       -2.1639000482        1.2059772661
 H        -4.9478772202       -3.6203844268        2.1553887827
 H        -1.7385891866        1.1325369437        2.9557231945
 H        -1.6122993335       -0.1532533654        1.7211270224
 H        -5.1254402619       -0.7381877353        4.4945236993
 H        -4.9525056749       -2.4746261718        4.4004967447
 H        -5.8504318375       -1.5185882651        3.0632833387
 H        -2.4768528981       -2.7007834931        4.5032202576
 H        -1.5351376277       -1.3022201266        4.0062934209
 H        -2.9144559527       -1.0825187923        5.1730124779
 H        -2.6550776803        2.8714727034        1.5747158775
 H        -3.0463704722        1.6866860538        0.1666631507
 H        -0.8451995275        6.5167921658       -0.1559034213
 H        -1.8681520239        5.3546436021        0.6717592071
 H         1.2453821794        2.6996243770       -1.3639301055
 H         0.2363556386        3.3890591146       -2.5010235729
 H        -0.0556662306        1.7725269066       -1.9820100334
 H        -2.6521844657        3.1926834115       -1.7828688448
 H        -2.7678602958        4.4206851307       -0.4868076536
 H        -1.7271340174        4.6494356180       -1.9929841396
 H         0.6578731933        6.4266145930        1.9289650438
 H        -0.5921718330        7.5686749843        1.7123506723
 H         0.3545966237        4.5704490669        6.4496347769
 H         0.2208599908        3.9057132621        4.7926094951
 H         0.4604716100        8.3449991037        3.7164042305
 H         0.0310652050        8.3534473046        5.3600748533
 H        -1.1766938821        8.5287012837        4.2024862914
 H        -2.4305157223        6.7979086174        5.1194048745
 H        -1.7562661333        5.2166853695        5.5654926475
 H        -1.2709833697        6.5314411784        6.5246277475
 H         2.1781004000        2.8952532031        6.1514220601
 H         2.9008181390        4.4933863231        6.1201817332
 H         6.7017584485        3.1419507873        2.4343174099
 H         6.8428321256        1.7377732591        3.4093718768
 H         5.6244033186        5.2561664400        2.9636985288
 H         3.9721309287        5.7010277488        3.3386535754
 H         4.1684828477        4.6728740040        1.9114906273
 H         6.3622679861        3.4518165078        4.7600800728
 H         5.3060062618        4.3493337789        5.8688461870
 H         5.1935528423        2.5755543936        5.8179865663
 H         7.4105699558        1.2260850430        1.0623437962
 H         6.1636761127        0.1648301751        1.7766122836
 H         4.0718621046       -0.7930710554       -3.1386794113
 H         3.8809309996       -1.7790729742       -1.7021714561
 H         4.9518261738        2.3152877754       -2.1185777449
 H         5.7999479192        1.0370342552       -3.0728884819
 H         6.6904245403        1.8940395500       -1.7239450532
 H         6.0897108232       -1.2824000604       -1.8861785752
 H         7.1016921420       -0.5604476288       -0.7865498448
 H         5.7435506045       -1.4398649644       -0.1969282954
 H         1.5944806559       -0.4108200840       -3.3367192629
 H         1.4448293332       -1.0137215036       -1.7917413185
 H        -0.6947637826       -2.0108647942       -6.5982202429
 H        -0.3567686980       -3.6293287855       -6.1563455042
 H         0.8229343712       -4.6565132594       -5.0188862896
 H        -0.4246162536       -5.2954697926       -3.9819715311
 H         1.0921778488       -5.3453357999       -3.5066855750
 H        -0.7088022368       -2.1570610226       -1.8637520975
 H        -0.9611762284       -3.9330832348       -2.0049544721
 H         0.5041036487       -3.2464458824       -1.2812867959
 H        -2.6005748459       -3.9761340063       -5.0248946886
 H        -2.9019742922       -2.3040547476       -5.0980547048
 H        -3.7512836740       -5.8039474696       -8.6523009138
 H        -5.5780238344       -6.3517524101       -8.4592027826
 H        -5.0159401166       -4.7793127113       -8.9346563161
 H        -4.9120632750       -2.0698837709       -5.1301591626
 H        -5.2520696083       -3.6436202130       -4.5024015864
 H        -6.4504203325       -3.0208420235       -5.5090844924
 H        -6.5624330844       -3.2409045307       -7.8521424378
 H        -5.7899218515       -1.8511131760       -7.4628405570
 H        -5.1273969370       -2.6558480101       -8.6867315957
 Na        2.2017370436        2.5049606885        0.9637369685
