155

 C        -5.0411903840       -5.9459320686       -3.3295604077
 C        -3.6840329111       -5.6727828378       -2.8611297590
 C        -2.7474814902       -6.9153352242       -2.3844278639
 C        -2.3754469631       -6.7516590840       -0.8397890962
 C        -2.6905391886       -7.8193539963        0.1535851308
 C        -3.3867847684       -8.2820028894       -2.7429161558
 C        -1.4660067948       -6.6531549236       -3.2466340419
 O        -3.2551392302       -4.5277477261       -2.7654835183
 O        -1.5797680432       -5.8524615372       -0.5574117997
 C        -2.9722725753       -7.2083041810        1.5147668936
 C        -4.3658602857       -6.5880989969        1.6153447897
 C        -4.9915706659       -5.9157210546        2.8427262458
 C        -4.7814692539       -4.4058952480        2.6768233074
 C        -5.6726891905       -3.8218954814        1.6450988508
 O        -5.1234837778       -6.6685933685        0.6381238170
 O        -3.9256415130       -3.7835396418        3.2742479355
 C        -6.4669007565       -6.4708252649        2.8804981105
 C        -4.3292614664       -6.4737821971        4.1581507376
 C        -5.2671185985       -2.2846561962        1.5748308293
 C        -3.9353896593       -2.2194278713        0.9613669299
 C        -3.1501197167       -0.8601741951        1.0352624333
 C        -3.0393784783       -0.4082559026       -0.5527710068
 C        -3.3692704720        1.1088728870       -0.8265979762
 C        -3.8346589769        0.1441169284        1.8902979166
 C        -1.7125236782       -1.1651731434        1.5526833249
 O        -3.3851481526       -3.2178839170        0.5939089280
 O        -2.5867702809       -1.1631150706       -1.3676557316
 C        -2.9001910742        1.6299232266       -2.2024950526
 C        -1.3512876259        1.6804334859       -2.4163380756
 C        -0.7660951097        2.4362308657       -3.6903769027
 C        -0.8513428714        4.0003738878       -3.2157981336
 C         0.4863517168        4.7056127545       -2.7109016133
 O        -0.6179865408        1.0735727384       -1.5913845717
 O        -1.8468276338        4.5762188691       -3.1294627948
 C         0.7362523345        2.0440846878       -4.0168773842
 C        -1.5135497658        2.1656075536       -4.9933518013
 C         0.1917153634        5.8338342866       -1.6356933735
 C         1.4656920242        6.5031030009       -1.1160128944
 C         1.6539812405        8.0721069158       -1.0920317805
 C         1.2130654766        8.4194688915        0.3976187929
 C         2.2154854434        8.5569836857        1.5560104550
 C         3.1043257403        8.4800169392       -1.3350394338
 C         0.6562817028        8.7840208945       -1.9440463074
 O         2.3964312195        5.8578473720       -0.6033085829
 O         0.0178373041        8.3124871712        0.5913237836
 C         2.5047463247        7.2581381339        2.3639520220
 C         3.9690615555        6.7710151487        2.1917756691
 C         4.3545398680        5.5025994813        3.0395128808
 C         3.4277127422        4.3783625431        2.6534887787
 C         3.4304138950        3.7206624673        1.2319404483
 O         4.9125047842        7.2725412673        1.5931890590
 O         2.4683534131        4.2191820608        3.4376763221
 C         5.9152660985        5.1334688054        2.8321276202
 C         4.1644327834        5.8207182658        4.5524366596
 C         2.7505674696        2.3519246831        1.2240307728
 C         3.6606099655        1.2428316363        1.7731034937
 C         3.0180084108        0.2118477428        2.8946656026
 C         2.6144688022       -1.1018107965        2.1422528510
 C         3.7153198100       -1.9040527231        1.5032057372
 C         4.1839482971       -0.1947896640        3.8922685418
 C         1.8835400465        0.9574877069        3.5722266426
 O         4.8064152350        0.9587550184        1.4475381035
 O         1.4038976243       -1.3774880834        1.8806638834
 C         3.2460488462       -2.6724189317        0.2720857795
 C         3.4645557433       -2.1138028265       -1.1137202939
 C         2.6144224991       -2.9705531590       -2.2930020026
 C         1.1574944771       -2.6316317545       -1.9624710878
 C         0.7493216121       -1.2519705347       -1.6673928240
 O         4.1044309391       -1.0957091513       -1.4565173764
 O         0.3602772007       -3.5260157880       -1.7212637843
 C         2.9257693882       -2.4329888185       -3.7196711309
 C         2.8735579896       -4.4592213602       -2.1566890863
 H        -5.5018085695       -6.4502676360       -2.4657763017
 H        -5.5219998856       -5.0070569104       -3.4767900431
 H        -5.0844925433       -6.6426003987       -4.2323712820
 H        -3.4667729551       -8.4070317082       -0.2607352919
 H        -1.8523678864       -8.5328622887        0.0976146688
 H        -4.1765619280       -8.5643396591       -2.0285166838
 H        -2.6378208046       -9.0624958774       -2.6329642797
 H        -3.7180902470       -8.2425753549       -3.8099178414
 H        -0.8415419010       -7.5076116412       -3.1288189821
 H        -1.8400062924       -6.5366180698       -4.2757812487
 H        -1.0028484404       -5.7011328870       -3.0384446548
 H        -2.9010127109       -7.9724950759        2.3095064436
 H        -2.0845776295       -6.4654399343        1.7741476013
 H        -5.5859981372       -4.3513268231        0.6389570895
 H        -6.7555946159       -3.9490991785        1.9505932654
 H        -6.4407191154       -7.5410073995        3.2288888652
 H        -7.0668382205       -6.2641560724        1.9635285063
 H        -6.9947730095       -5.8555740739        3.6328797023
 H        -4.9054852012       -6.3618896195        5.0540972746
 H        -3.9822684804       -7.5749220924        4.0726838948
 H        -3.4686018541       -5.8842689869        4.4304020812
 H        -5.2746496581       -1.8275246808        2.5685701023
 H        -6.0397905879       -1.6446089528        1.0474221778
 H        -4.4598039981        1.2054536562       -0.6032041700
 H        -2.7849707447        1.5565488192       -0.0433276137
 H        -3.2503413482        1.0962313411        1.8602574604
 H        -3.8037281756       -0.1517949319        2.9405821759
 H        -4.9242611593        0.2688545934        1.6510292104
 H        -1.6896092218       -1.3283659034        2.6005751907
 H        -1.1285686779       -1.9360444843        0.9689027062
 H        -1.2388552444       -0.2200735414        1.4478609381
 H        -3.2984955567        0.9809589892       -2.9718998837
 H        -3.3267422288        2.6527548256       -2.4443464128
 H         1.2182813495        4.0680901401       -2.1845750742
 H         0.9399919130        5.3326823896       -3.5151810068
 H         1.3899923527        2.1363904803       -3.1807668118
 H         1.1103994975        2.6715808381       -4.7812542644
 H         0.7620574455        0.9885626629       -4.2953780737
 H        -1.8216811494        1.0939292050       -4.9363638045
 H        -2.4316727502        2.7802017332       -5.3019596311
 H        -0.8554609191        2.2253786593       -5.8148334152
 H        -0.1740050335        5.4840242310       -0.6458302279
 H        -0.5233116293        6.6061679807       -1.8628791694
 H         3.1417728100        8.9348526437        1.0655184628
 H         1.8602341674        9.3214092924        2.2545447244
 H         3.3515428253        8.2217467751       -2.3579349582
 H         3.6038593212        7.8779826235       -0.6142727353
 H         3.2888247104        9.4995302592       -1.1018496712
 H        -0.3784351658        8.6824997845       -1.7342718902
 H         0.7978287516        9.8595279814       -1.7127054662
 H         0.7941272522        8.6602968095       -3.0423435812
 H         2.2894300101        7.3230036976        3.4649044386
 H         1.9089490750        6.4594981176        2.0167698062
 H         2.7732290722        4.4467595599        0.7586765007
 H         4.4141259536        3.7511564731        0.8058075749
 H         6.2164345025        4.1500331800        3.2866931451
 H         6.4783744292        5.8659919760        3.3035424995
 H         6.1263774104        5.1602111478        1.7557764177
 H         4.5642813510        6.8345121812        4.7096138002
 H         3.1335420853        5.7531373608        4.8280932800
 H         4.6828040002        5.1363399785        5.1787988534
 H         2.3638779125        2.2752967007        0.1524988275
 H         1.6917958431        2.3008255002        1.7805758913
 H         4.4844826217       -1.1704795133        1.2851092123
 H         4.0562678086       -2.5918166252        2.2999904357
 H         4.1657492144        0.4334892141        4.8289069784
 H         5.0762688724       -0.2323748134        3.3553547478
 H         3.8910292181       -1.1838420954        4.1243631771
 H         2.1938337539        2.0001402932        3.7027709168
 H         0.9073647028        0.9695768107        3.1688118254
 H         1.7297116736        0.5825392731        4.5882676088
 H         3.7297312275       -3.6413141657        0.2283837416
 H         2.1782122853       -2.7631490694        0.4282319645
 H         1.2561125808       -0.9372697285       -0.7702608529
 H         1.0810882038       -0.5677681100       -2.3987265650
 H        -0.2977267422       -1.0757650929       -1.4842804445
 H         3.8959619997       -2.9906225340       -4.0322624804
 H         3.2363543048       -1.4124944425       -3.6291517940
 H         2.1082864018       -2.4959923315       -4.4209480549
 H         3.7927920229       -4.7171704558       -2.7053117389
 H         2.7540919983       -4.7732587401       -1.1526573410
 H         2.0398851396       -4.9562123206       -2.7561171915
 Na       -1.8624802934       -3.5188796205       -1.1585759162
