155

 C        -5.3028990300       -6.2952399459       -3.4328346149
 C        -3.9361842969       -5.7597775949       -2.9397092193
 C        -2.8118001433       -6.8675378471       -2.6606127339
 C        -2.3987993743       -6.7884154491       -1.0537284800
 C        -2.7096290294       -8.0237378427       -0.1411883362
 C        -3.2854631638       -8.2932211974       -3.0460370767
 C        -1.5670119123       -6.3925565351       -3.3999804355
 O        -3.6890753174       -4.5770187711       -2.8221193138
 O        -1.8962009805       -5.7764599896       -0.5987813786
 C        -3.0541208359       -7.5878412046        1.2708524268
 C        -4.2867286913       -6.6306866690        1.2820225615
 C        -4.7075068382       -6.0327674423        2.6872069721
 C        -4.4744970929       -4.4372928472        2.7241895396
 C        -5.3832265827       -3.7264316868        1.7897896707
 O        -4.8729947933       -6.3300818279        0.2607210917
 O        -3.8067365459       -3.9781640127        3.6268434525
 C        -6.1744504737       -6.4560543119        2.8459987494
 C        -3.8458231962       -6.6080017037        3.8757593264
 C        -5.0344911234       -2.2523836297        1.5999347011
 C        -3.5736591557       -2.0624026203        0.9142285761
 C        -3.0591526565       -0.6757071878        0.5346229976
 C        -3.0780825167       -0.5359575284       -0.9363669957
 C        -3.7863683402        0.7329314258       -1.5866355559
 C        -3.8094583759        0.3179432971        1.3905343693
 C        -1.5703059891       -0.5441519241        1.0414835162
 O        -2.9890252393       -3.0547450540        0.5454682872
 O        -2.4505441358       -1.2609859137       -1.6336603538
 C        -3.0103289570        1.2382012146       -2.8561339675
 C        -1.6149933899        1.7912827119       -2.6628289199
 C        -1.0054351170        2.7364329168       -3.6855952965
 C        -0.9661564960        4.3143182208       -3.1631128176
 C         0.2024110838        4.7009588327       -2.2305561847
 O        -0.9416809938        1.5312238403       -1.6865938601
 O        -1.6166409852        5.1659642371       -3.6862119759
 C         0.4366362521        2.3191477169       -3.9160755439
 C        -1.7665392723        2.8312286033       -5.0448554403
 C         0.2354542824        6.2444329502       -2.0876612355
 C         1.4510110761        6.6811759416       -1.4262449912
 C         1.5984676347        8.2707490689       -0.9717823318
 C         0.6786495106        8.2460903694        0.2839165405
 C         1.1802245075        8.1892378133        1.7275129811
 C         3.0647205674        8.5227344613       -0.7040361928
 C         1.0680091272        9.2118821370       -2.0561199883
 O         2.4439165466        5.9743396815       -1.2255446186
 O        -0.5300670758        8.3063302915        0.0803158543
 C         1.5816129083        6.7408060737        2.1460535664
 C         3.0809251244        6.6988021833        2.4885146628
 C         3.7691607850        5.3325550773        3.2368008535
 C         2.9746252993        4.1657105058        2.4833660962
 C         3.5851385217        3.4366178114        1.2216333842
 O         3.8427244286        7.5793338832        2.1810012447
 O         1.9133286762        3.7543861657        2.9377412898
 C         5.3077984843        5.4143752954        3.0129780104
 C         3.3026672658        5.3038446677        4.6750144287
 C         3.3658562072        1.8352530189        1.3254912979
 C         4.1605495620        1.3088216110        2.5523637133
 C         3.3901179299       -0.0083997609        3.3291730645
 C         3.2767413340       -1.1073762608        2.2419726947
 C         4.4952301512       -1.9718593052        1.7893842511
 C         4.1807941628       -0.4076483778        4.5701840372
 C         1.9967562551        0.4827402491        3.7478062248
 O         5.0898379140        1.8797477494        3.0734932488
 O         2.2096197667       -1.1155943667        1.6009378651
 C         4.2125209672       -2.9723866968        0.6878494965
 C         3.6318618086       -2.3005158263       -0.5939943949
 C         2.9919868397       -3.1660946988       -1.7558725536
 C         1.4700130634       -2.7101363955       -1.7153946469
 C         1.0546276579       -1.2776457871       -1.8594328000
 O         3.8800570082       -1.0838608653       -0.7732838442
 O         0.6696785935       -3.5961733472       -1.4169374723
 C         3.7506046331       -2.6746620251       -3.0282965517
 C         3.2171745209       -4.6493827015       -1.5670196936
 H        -5.5148915093       -7.1900729365       -2.7926805048
 H        -6.1619962940       -5.6554830643       -3.4931186839
 H        -5.0098008827       -6.6362457329       -4.4387673106
 H        -3.5984573730       -8.6222028540       -0.5572409089
 H        -1.7793747969       -8.5859135850       -0.0948254078
 H        -4.1105866331       -8.5367885346       -2.3151262516
 H        -2.4799499749       -8.9908365747       -2.9107602639
 H        -3.5341696766       -8.3328543015       -4.1045058602
 H        -0.6933355903       -6.9218671645       -3.1210491280
 H        -1.7750799866       -6.5688300381       -4.4329637272
 H        -1.3345045402       -5.3575323916       -3.1558046864
 H        -3.1592562274       -8.4002391403        2.0173196841
 H        -2.1760521610       -6.9390333497        1.7241549798
 H        -5.3657512615       -4.1699651555        0.7684187800
 H        -6.4585611833       -3.5609813468        2.0482911830
 H        -6.2535824203       -7.5117971611        2.9231121434
 H        -6.7038126175       -6.3665456809        1.8793560185
 H        -6.6114117966       -6.0139141953        3.7651804315
 H        -3.8377319875       -6.0629318918        4.7962270495
 H        -4.2080333122       -7.5690568442        4.2833011160
 H        -2.8188261512       -6.8632260445        3.5585667884
 H        -5.0640818060       -1.8221367587        2.6385340343
 H        -5.8514459627       -1.6808969447        0.9570122539
 H        -4.7530832444        0.3399986030       -1.7060634958
 H        -3.8794464186        1.4337530445       -0.7502811692
 H        -3.3065396494        1.2790141521        1.3128667673
 H        -3.8937751830       -0.0291496455        2.4717678671
 H        -4.8284584765        0.4091083284        1.0266438562
 H        -1.7359641893       -0.6005628770        2.1013203735
 H        -0.7929973777       -1.2676958593        0.8108412246
 H        -1.3480434801        0.4505492472        0.8083930078
 H        -2.9370585772        0.2469127950       -3.3996921050
 H        -3.6126945592        1.9024349602       -3.3904304209
 H         0.1093033465        4.1468528116       -1.2678510896
 H         1.1390493412        4.3524717579       -2.5550462934
 H         0.9184796193        2.1734989743       -2.9736776098
 H         1.0840765528        2.9112452454       -4.4928963674
 H         0.3367081403        1.3848438276       -4.4625941565
 H        -2.0209058359        1.9321802677       -5.5876737179
 H        -2.7335347115        3.4751078117       -4.9730814566
 H        -1.0348363527        3.3359663934       -5.6604171748
 H        -0.6526070256        6.6944005274       -1.6336317392
 H         0.4577264307        6.7583989256       -3.0548527458
 H         1.9281664911        8.9818217253        1.8328508050
 H         0.4015109682        8.5048735466        2.4236946599
 H         3.5298075280        8.1696565253       -1.6191467709
 H         3.3816810567        7.9130166452        0.1202390358
 H         3.0971384970        9.5451213607       -0.5490040155
 H         0.0473115041        9.3410592726       -2.2117159794
 H         1.4986230890       10.2261392831       -1.8318425659
 H         1.5904293823        8.9383700913       -3.0271875985
 H         1.0210098233        6.5251517668        3.0555083124
 H         1.3689509070        5.9538433014        1.4183340108
 H         2.9838421817        3.7281458980        0.3389091693
 H         4.6189206168        3.6623623098        1.0787517904
 H         5.8990165704        4.5513287681        3.4843363375
 H         5.7315369584        6.3520991393        3.2723174792
 H         5.5907274094        5.2448410164        2.0062548632
 H         3.4912637645        6.2146012498        5.2046455447
 H         2.2301799396        5.1585789419        4.6356406662
 H         3.6915157404        4.3838322516        5.1402067327
 H         3.8959259865        1.4280275830        0.4950700475
 H         2.2514190114        1.5621152991        1.2761800694
 H         5.3587370691       -1.3529095078        1.4845622998
 H         4.8149507855       -2.5503294676        2.6613045502
 H         4.4197943968        0.5309881874        5.1501832431
 H         5.1061714229       -0.9061518939        4.3216171063
 H         3.5540003713       -1.0448782505        5.1587505933
 H         2.0227302295        1.5353174212        4.0590519468
 H         1.3286595994        0.3756204046        2.8684906629
 H         1.5312184730       -0.0771252556        4.4979522128
 H         5.1225129664       -3.3959241974        0.3188816975
 H         3.5641385302       -3.7977921453        0.9729289696
 H         0.9438662118       -0.7120217579       -0.9636690247
 H         1.7387068451       -0.6424002369       -2.3323860983
 H         0.1233064969       -1.3530221901       -2.3927106248
 H         4.8301339886       -3.1475476883       -3.0595879416
 H         3.8371266282       -1.5779570196       -3.0661010364
 H         3.2858990749       -3.0302793629       -3.9430491510
 H         4.1198505424       -4.9785447482       -0.9617192543
 H         2.3994929816       -5.0136894240       -0.9827826395
 H         3.1154198803       -5.1718562915       -2.5081481888
 Na       -1.8209999888       -3.5623777542       -1.4597727565
