155

 C        -5.0372161361       -5.8508605007       -2.9048683711
 C        -3.6259161495       -5.5040256396       -2.7104648635
 C        -2.5815898302       -6.6374224830       -2.7315064807
 C        -2.2285014067       -6.7632090675       -1.1744317493
 C        -2.8039117752       -7.8755469805       -0.3316251624
 C        -3.1494280193       -7.9694155653       -3.3524995756
 C        -1.2702275540       -6.2149365937       -3.5316164217
 O        -3.2198657328       -4.3770635955       -2.5467071400
 O        -1.5377228484       -5.8730167382       -0.7088529204
 C        -3.0341516995       -7.3839157649        1.1045064361
 C        -4.2528748085       -6.5552896917        1.2941152363
 C        -4.7433521694       -6.1602893873        2.8487665366
 C        -4.3989427694       -4.6320234875        2.7662493837
 C        -5.3690930264       -3.6783976738        1.9535262109
 O        -4.9915757335       -6.3399564822        0.3247048920
 O        -3.3919675532       -4.3268599493        3.3522805493
 C        -6.2517410628       -6.5693255300        2.8662296599
 C        -4.0359007302       -6.8777461040        4.1072830283
 C        -4.8839406184       -2.2205949097        1.7365975606
 C        -3.6952062833       -2.0663267663        0.7160558863
 C        -3.0480136456       -0.7223110241        0.3425901499
 C        -2.9370468842       -0.4452965518       -1.3129885722
 C        -3.7159646029        0.8183147261       -1.6896589043
 C        -3.8647059798        0.5425140136        1.0679383013
 C        -1.6551105267       -0.6888176088        0.9015331278
 O        -3.2470287991       -3.1163878525        0.2629146988
 O        -2.4522779332       -1.2426787534       -2.0608246339
 C        -3.1380103384        1.4757303254       -2.9632714456
 C        -1.7202752904        1.9075557278       -2.7787577363
 C        -1.0421600323        2.7194803950       -3.8559007696
 C        -1.1220891984        4.2610728796       -3.3182039423
 C        -0.0980976506        4.7157835326       -2.2850545132
 O        -1.2032623730        1.6724628581       -1.6578625167
 O        -1.9576104968        4.9379029163       -3.7957969391
 C         0.4686918316        2.2823113815       -3.9242631886
 C        -1.6373589018        2.6569636584       -5.2895258766
 C         0.3491671542        6.2379583594       -2.4372351268
 C         1.4860466914        6.7410345861       -1.5265567890
 C         1.5158499281        8.2500807134       -0.9383215290
 C         0.4232232526        8.2109499687        0.2611052302
 C         0.8900634627        8.1167041946        1.6940041205
 C         2.9920631341        8.7807570626       -0.3396790087
 C         1.1367475912        9.2501427337       -2.0605667444
 O         2.2465188117        5.8941865513       -0.9743526401
 O        -0.7338590786        8.2029047568       -0.0301251167
 C         1.5755655801        6.7126540904        1.9318593719
 C         2.9273244024        6.6568364265        2.5595882532
 C         3.4454928206        5.3120904456        3.1803293549
 C         2.9856484288        4.0701062094        2.3048427335
 C         3.8831704044        3.2036725149        1.4605414155
 O         3.5707348804        7.6435954718        2.7186975486
 O         1.7801408951        3.8883866650        2.3089627679
 C         4.9973422214        5.3320794634        3.2425541290
 C         2.7391685365        5.3184218383        4.6584960691
 C         3.6956165256        1.6480316824        1.4729851246
 C         4.0721170823        1.1731431463        2.8245136305
 C         3.4073163139       -0.0708190925        3.4157855090
 C         3.3060659818       -1.0856327396        2.2806630044
 C         4.6484189288       -1.6822697187        1.7391719690
 C         4.3349504644       -0.6618279873        4.6250584376
 C         1.9387332562        0.2578669605        4.0174158784
 O         4.7893697705        1.8283640749        3.5088952149
 O         2.1866119897       -1.4899044882        1.8602661977
 C         4.3306353701       -2.8314551168        0.7662061437
 C         3.8850581206       -2.2991665340       -0.6046102096
 C         3.0382570686       -3.1446707761       -1.5884181533
 C         1.4794590988       -2.6746838156       -1.6517660007
 C         1.2448392210       -1.2228422625       -2.1299476333
 O         4.1914660722       -1.0927351807       -0.9019053564
 O         0.5993176727       -3.4065556222       -1.2609774858
 C         3.8216214457       -3.0398823783       -2.9499271449
 C         3.0477035713       -4.6571591977       -1.1378033336
 H        -5.3913655329       -6.1678411020       -1.9209633310
 H        -5.6513196242       -5.0749252667       -3.2623219882
 H        -5.0154201144       -6.6548828989       -3.6553177683
 H        -3.7607275696       -8.1774450077       -0.8023894814
 H        -2.0471388627       -8.6060414172       -0.2797237594
 H        -4.0465352501       -8.3676153329       -2.8005362782
 H        -2.4355383218       -8.7345384402       -3.1671149789
 H        -3.3825079824       -7.8155937822       -4.4295453643
 H        -0.5660894907       -6.9815338673       -3.5445482814
 H        -1.6141853900       -5.8588673410       -4.5154188842
 H        -0.7274784659       -5.4406334966       -3.0570849358
 H        -3.0500916113       -8.2030036751        1.8553162069
 H        -2.1162364164       -6.6240337648        1.2774272686
 H        -5.5179101129       -4.1089390831        0.9386104376
 H        -6.3314410967       -3.6993838624        2.5522052096
 H        -6.2883067822       -7.6502343814        2.9699457260
 H        -6.7650095956       -6.4450178688        1.9263125391
 H        -6.7527997197       -6.1772290287        3.7439764162
 H        -4.6527237585       -6.9907357793        4.9799269897
 H        -3.6265499647       -7.9240793706        3.8656737164
 H        -3.1847709891       -6.3362759985        4.5264686714
 H        -4.4653705177       -1.8865560697        2.7011133414
 H        -5.6428968225       -1.4033220951        1.3915158696
 H        -4.7350269582        0.5034143495       -1.8686710947
 H        -3.8669235574        1.4963986124       -0.8352147822
 H        -3.2690087901        1.4301291224        1.1406091201
 H        -4.1445449330        0.2992539979        2.1001707291
 H        -4.8132484986        0.7767423140        0.6419845944
 H        -1.7281051394       -1.0801805756        1.8902351338
 H        -1.0339008224       -1.4917927885        0.3855253627
 H        -1.2158819746        0.2653820184        0.8638846966
 H        -3.1017197126        0.6934375774       -3.8142337196
 H        -3.9041529838        2.1694314958       -3.1926758237
 H        -0.6680250905        4.7635675068       -1.2694226372
 H         0.7631466327        4.0715667079       -2.1074830180
 H         0.8770890886        1.8137689099       -3.0063168026
 H         1.1444448498        3.0599439981       -4.2890614358
 H         0.5882345756        1.4261780382       -4.6606782772
 H        -1.5807024117        1.6188976458       -5.7813906112
 H        -2.6488979499        3.1456977959       -5.3312085072
 H        -1.0527561312        3.3222937087       -5.9217120147
 H        -0.4873011562        6.9333815977       -2.2651256803
 H         0.6043421253        6.5111407102       -3.4954583786
 H         1.6795341221        8.8173530704        1.8121348641
 H         0.0898116036        8.4515099824        2.3060023016
 H         3.5937174473        9.0451087705       -1.1987862140
 H         3.3381237976        7.8837248350        0.1236141495
 H         2.8450139440        9.4306875256        0.3725315791
 H         0.1834799626        8.9588885905       -2.3739761326
 H         0.9464266781       10.2726016026       -1.8064685162
 H         1.8283392520        9.0761195463       -2.8897555797
 H         0.9763817847        6.0047321819        2.5101260297
 H         1.7272892054        6.3190288424        0.9459444264
 H         3.7409699797        3.6459943905        0.4501569606
 H         4.9129907720        3.2671269874        1.6333652207
 H         5.5261157746        4.4720409445        3.6973617013
 H         5.3660595971        6.1901146078        3.7128155764
 H         5.4514454801        5.2782849507        2.2493967910
 H         2.9784127607        6.3122124770        5.1546555535
 H         1.6442152886        5.1752796363        4.5018990082
 H         3.1191452815        4.4719852489        5.2845068874
 H         4.5634082445        1.2696973454        0.8530583492
 H         2.6475932393        1.2837714915        1.1481622782
 H         5.2849554306       -0.8980577477        1.3693061319
 H         5.2061335896       -2.1274474183        2.5440983243
 H         5.3696930660       -0.3022617314        4.4199325050
 H         4.2791264157       -1.6912065814        4.6250804192
 H         4.1807995850       -0.2203982421        5.5825173609
 H         1.9863669483        0.4130943168        5.1097655986
 H         1.4673757310        1.0622665316        3.4254716537
 H         1.2680656777       -0.5644391517        3.8076228507
 H         5.1008129192       -3.5649515954        0.5521793444
 H         3.5006734002       -3.4514900619        1.1679585784
 H         1.8605076805       -0.4494639719       -1.6208284119
 H         1.6908371801       -1.1155706860       -3.0977192882
 H         0.1823588492       -0.8552200348       -2.2823823360
 H         4.5831086683       -3.8083579796       -2.8922855107
 H         4.4829713829       -2.2205388865       -2.9850422483
 H         3.2684748034       -3.0563866881       -3.8717676124
 H         4.0041596153       -5.1399618935       -1.5077244944
 H         2.7476920998       -4.9226345398       -0.1657391477
 H         2.3209728220       -5.2816723683       -1.7259569764
 Na       -1.5532004767       -3.4889934590       -1.2858633724
