155

 C        -5.1144588901       -5.5529147917       -2.7347894854
 C        -3.5226131386       -5.2955513082       -2.7747483393
 C        -2.4730780020       -6.3884703627       -2.7046091445
 C        -2.0817603719       -6.6283077486       -1.1368683583
 C        -2.7343195354       -7.8553386464       -0.3166172452
 C        -2.9800441680       -7.7068826237       -3.3326270522
 C        -1.2093471096       -5.9865592345       -3.4221551299
 O        -3.1928900647       -4.1102595008       -2.9290940178
 O        -1.1916845198       -5.9758283317       -0.6303661726
 C        -2.8818584186       -7.3780982723        1.1903019742
 C        -4.2998787060       -6.6749985132        1.3594391436
 C        -4.7631497443       -6.0920405637        2.7400588240
 C        -4.2829563712       -4.6024794144        2.6444168151
 C        -5.3418605265       -3.6361074197        2.0294405748
 O        -4.9519790884       -6.5530533982        0.3661294639
 O        -3.2985679645       -4.2624671795        3.2256676379
 C        -6.3426112136       -6.3129952785        2.7874496927
 C        -4.0233112095       -6.8958810772        3.8223481051
 C        -4.7465376121       -2.2724641168        1.8096158828
 C        -3.7076503919       -2.1850556708        0.6167916031
 C        -3.1277152548       -0.6926123980        0.4208141320
 C        -3.0601701356       -0.4326901151       -1.1661428410
 C        -3.7716308657        0.8105650254       -1.8239116709
 C        -3.8428715978        0.4173669037        1.2579505357
 C        -1.5575451628       -0.7754952438        0.7276977039
 O        -3.4493172712       -3.1804609369        0.0115555420
 O        -2.5197756311       -1.2422818223       -1.9343819841
 C        -3.0571302713        1.3532414200       -3.1336494395
 C        -1.6827711538        1.9318263896       -2.7997115372
 C        -0.9074896533        2.7765011771       -3.9363667419
 C        -1.0130474806        4.2715529807       -3.3751564833
 C        -0.0941158222        4.7548063281       -2.2916449317
 O        -1.2045565967        1.9042300140       -1.7086141810
 O        -2.0214938382        4.8851795515       -3.6879195593
 C         0.5718718229        2.2752655516       -3.9528719812
 C        -1.5360393521        2.5985338912       -5.3115123234
 C         0.2599721142        6.2369411508       -2.5074085366
 C         1.3861580062        6.6703417444       -1.4887885032
 C         1.3256889024        8.1461728155       -0.9978759532
 C         0.3155547973        8.1224175166        0.1742864035
 C         0.9285658526        8.0488279128        1.6726613737
 C         2.8653187210        8.3972475131       -0.5961215580
 C         0.9247955359        9.2071252044       -2.0902016246
 O         2.2155311817        5.8892342085       -1.1241116613
 O        -0.8783411072        8.2898875158       -0.1068825282
 C         1.4179901060        6.6536219745        2.0038069422
 C         2.8061974423        6.6463639992        2.6230661545
 C         3.3543679847        5.2704972160        3.2154866617
 C         2.8896258041        4.1760563576        2.2011033867
 C         3.8519886572        3.3473335442        1.4379238474
 O         3.3460408508        7.7047014600        2.8896614820
 O         1.7444184147        3.7429077563        2.0815407001
 C         4.8210052357        5.3797767532        3.4925633451
 C         2.6326484668        4.8776974630        4.5347382211
 C         3.6229008254        1.8210365093        1.8072721041
 C         4.0816424572        1.2208181899        3.1302092984
 C         3.4441288041       -0.1026943558        3.5408761726
 C         3.2904067089       -1.1399560947        2.2729499503
 C         4.6443043686       -1.6067966247        1.6544410238
 C         4.2042671056       -0.8246731078        4.6950419919
 C         2.0256312551        0.2408646759        4.1159704942
 O         4.8356571106        1.7815487407        3.9272909822
 O         2.2363888080       -1.5436360841        1.9391674200
 C         4.5161690557       -2.8065293286        0.7538763009
 C         3.9492793539       -2.3024171380       -0.6279585082
 C         3.1520500725       -3.2923187894       -1.5494321379
 C         1.6746372512       -2.5956605551       -1.6069030090
 C         1.4438184794       -1.2035128647       -2.1243739381
 O         4.1057581483       -1.1837976018       -0.9845890598
 O         0.7838949559       -3.3789487017       -1.2420228436
 C         3.7722353013       -3.1732228718       -2.9248519970
 C         2.9856284261       -4.7417339602       -1.1074778923
 H        -5.3694722351       -5.9983915651       -1.7572904931
 H        -5.6485171753       -4.5631696588       -2.8019590712
 H        -5.4724725935       -6.1094796061       -3.5772673395
 H        -3.7064448364       -8.1781137175       -0.7318043879
 H        -1.9273375554       -8.6598479828       -0.1895666099
 H        -3.7262717514       -8.2499598055       -2.7725671660
 H        -2.1122457559       -8.3938315706       -3.5211568740
 H        -3.4703774485       -7.3893678529       -4.2460517707
 H        -0.4906961756       -6.8378973575       -3.3675679994
 H        -1.3823421541       -5.6616365310       -4.4197826714
 H        -0.7178427008       -5.0789604207       -2.9477659177
 H        -2.9509537652       -8.2759067606        1.8176182821
 H        -2.0409200179       -6.8354305416        1.3539875741
 H        -5.8656919199       -4.1368831987        1.1764955855
 H        -6.0258560846       -3.5354176065        2.8738688187
 H        -6.5585871384       -7.3974087414        2.8082238150
 H        -6.8639025239       -5.8656571776        1.8694170262
 H        -6.7920019853       -5.8909101128        3.7238655592
 H        -4.1256573761       -6.5158616509        4.8668089510
 H        -4.3767245358       -7.8697712173        3.7415860163
 H        -2.9317498866       -6.9523327841        3.8325265942
 H        -4.2411311224       -1.9679067707        2.7653932810
 H        -5.4160161022       -1.5029649267        1.5806283878
 H        -4.7524399534        0.4052187522       -2.1312419304
 H        -4.0867969333        1.5563466769       -1.1103401530
 H        -3.5656448735        1.4429410209        0.9614807500
 H        -3.5453002365        0.3641055905        2.3261160660
 H        -4.9470077107        0.3231910094        1.2060266598
 H        -1.3522830924       -1.2744473437        1.7010308955
 H        -1.1107013865       -1.2917699729       -0.0555109974
 H        -1.1370351710        0.2595161746        0.7877459436
 H        -2.9153672173        0.5386966118       -3.7828173084
 H        -3.8042239285        2.0379900906       -3.6327227732
 H        -0.5506284750        4.7888716015       -1.3708150675
 H         0.8219924700        4.1824066125       -2.2605151416
 H         0.9817567989        2.2033387504       -2.9765051915
 H         1.1888793579        2.9083931018       -4.5719804125
 H         0.6917633675        1.2921673949       -4.2594346447
 H        -1.7052445576        1.6081600693       -5.5176182095
 H        -2.4419176846        3.2155236043       -5.2973929611
 H        -0.9849501202        3.0049874948       -6.1752234722
 H        -0.6131716483        6.8864518023       -2.4380723068
 H         0.5373188579        6.4798781519       -3.5180849935
 H         1.7015171877        8.8259569215        1.9064003964
 H         0.0195825189        8.2718096002        2.2889588083
 H         3.3554528305        8.0863836856       -1.5054518685
 H         3.0105226265        7.7104830869        0.2670223595
 H         3.0263015886        9.4878993878       -0.3085614152
 H        -0.1509280513        9.0445451200       -2.3390745398
 H         0.9006287031       10.2548995326       -1.7317791757
 H         1.5693725850        9.1007082958       -2.9707588406
 H         0.7398966121        6.2326634603        2.7418257278
 H         1.4046609116        6.0002933663        1.0845812228
 H         3.6801399603        3.3386625842        0.3567598180
 H         4.9648935101        3.5870458138        1.4317046838
 H         5.2811908982        4.6435292808        4.1602860164
 H         5.0225304474        6.3386115905        4.0614808188
 H         5.4663963222        5.3801707694        2.6362065143
 H         2.6565686232        5.7072232788        5.1783175431
 H         1.6255911557        4.5544427860        4.2890262812
 H         3.1802487783        4.0929382859        5.0455977056
 H         4.0692927348        1.3128800270        1.0406844369
 H         2.5665467213        1.6504364215        1.7650374273
 H         5.1507182020       -0.7565419013        1.1383893626
 H         5.3690902742       -1.9223597338        2.4363123104
 H         5.0900236928       -1.3303240568        4.4230628571
 H         3.4719651776       -1.5086633791        5.2554470759
 H         4.6043270400       -0.0409515054        5.3517022463
 H         2.1860656320        0.9716384597        4.8761987833
 H         1.3825213405        0.6002138117        3.3127733959
 H         1.5469588749       -0.6167884605        4.5885744902
 H         5.4535688433       -3.3379470155        0.5459237758
 H         3.8983575843       -3.5837002322        1.1530536765
 H         2.2717458119       -0.5575450710       -1.9774660263
 H         1.1632043147       -1.1161846454       -3.1816239452
 H         0.6335269368       -0.7134619782       -1.6323660228
 H         4.7059734146       -3.7899808373       -3.1855335817
 H         4.1311451225       -2.1125948740       -3.0967924304
 H         3.0042505861       -3.2923533265       -3.7191544980
 H         3.8023352384       -5.0424880316       -0.4964972187
 H         2.0473295452       -4.6956945581       -0.5234768166
 H         2.9406115348       -5.5641625431       -1.7182257132
 Na       -1.5968701034       -3.5004991364       -1.2825677945
