155

 C        -3.9681225001       -5.6017201831       -4.6539876945
 C        -2.9679819074       -5.2316249466       -3.5525279371
 C        -2.1292546418       -6.4204644279       -2.9299735323
 C        -1.8530594893       -6.3310515944       -1.3761535882
 C        -2.2559793955       -7.5184845001       -0.4593193506
 C        -2.6816349859       -7.8237224149       -3.3393736463
 C        -0.7253060037       -6.2924998905       -3.6204388438
 O        -2.6205033949       -4.0919567366       -3.2983240967
 O        -1.2610196274       -5.4553017533       -0.7660657462
 C        -2.6755315679       -7.1474842275        0.9822608694
 C        -3.9630775122       -6.3953254315        1.0610844891
 C        -4.5827532506       -5.8705209271        2.3637877671
 C        -4.1750509242       -4.3173640095        2.5557704236
 C        -5.1578477409       -3.3569333736        1.8291102171
 O        -4.5900512463       -6.2498621432        0.0561608464
 O        -3.2166370288       -3.9639029839        3.1462877926
 C        -6.1538104645       -6.1251341275        2.3593673904
 C        -3.9549329667       -6.6908909093        3.5427160804
 C        -4.5643110726       -2.0004858619        1.8370885777
 C        -3.2872535998       -1.9753232813        0.9786084671
 C        -2.5543632928       -0.6488993460        0.7449400555
 C        -2.5941699740       -0.2654874668       -0.7682772501
 C        -3.1390016938        1.2111407362       -1.1593139158
 C        -3.0634170780        0.4675239736        1.6569288769
 C        -1.0832093819       -0.9043674582        1.3512940679
 O        -2.8227219513       -3.0045246424        0.5227424548
 O        -2.0323588236       -0.8662550667       -1.6929653436
 C        -2.8038122578        1.6569791665       -2.5649938483
 C        -1.3669393645        1.9660994020       -2.7848165230
 C        -0.8751017909        2.5727904175       -4.1493173966
 C        -0.7667168995        4.1047907978       -4.1424901843
 C         0.3411552220        4.7536435890       -3.2764860665
 O        -0.6290383375        1.8977730727       -1.7756505395
 O        -1.5064386752        4.7347445654       -4.8661639972
 C         0.5941690458        1.9532538216       -4.4086615962
 C        -1.8199732332        2.1356914007       -5.2628354426
 C        -0.0091586944        6.1038668596       -2.7850091907
 C         0.9788341466        6.7834601772       -1.8258529526
 C         0.5057730534        8.1522768553       -1.2934676433
 C        -0.1181145585        7.7859221963        0.1861299479
 C         0.8146850747        7.7315678996        1.3980678762
 C         1.7951400049        9.0106090293       -1.2853075076
 C        -0.6199794510        8.9623527560       -1.9689943866
 O         1.9793599824        6.2049000955       -1.4395864326
 O        -1.2108017932        7.4364284097        0.2217282502
 C         1.0887327339        6.2237547234        1.7310153091
 C         1.9557525993        6.1217715303        2.9927196262
 C         1.7933372844        4.8640509097        3.9389141805
 C         1.9471001089        3.6187117859        3.0744164474
 C         3.2994279637        3.4662928270        2.2677779914
 O         2.7506179129        7.0293426455        3.1673427683
 O         1.0646103848        2.7898481267        2.8989060195
 C         2.7796661710        4.9431621854        5.0940611179
 C         0.3355424970        4.9383063446        4.4186720651
 C         3.7504089186        2.0371062966        2.0286824265
 C         4.0577336500        1.1240454652        3.3530562568
 C         3.2049095567       -0.1341300495        3.7320122010
 C         3.1890845218       -1.1229570446        2.5434230590
 C         4.2657642249       -2.1981786915        2.2800767069
 C         3.8808250673       -0.7178002733        4.9686173472
 C         1.8298829890        0.3506801706        4.1550275528
 O         5.1032220342        1.2749592666        3.9784593686
 O         2.2754366493       -0.9220963277        1.6818966365
 C         3.9681538678       -3.1326664498        1.0686565224
 C         4.1367396530       -2.3769727032       -0.2819660838
 C         3.4792920321       -3.0800412630       -1.4889045606
 C         1.9704566220       -2.4807225619       -1.5084379041
 C         1.8026194632       -0.9173094851       -1.4795181550
 O         4.6124200181       -1.3463029786       -0.5018116360
 O         1.0494246398       -3.2526792058       -1.4683670269
 C         4.2664501369       -2.6971464207       -2.8435535981
 C         3.4551901653       -4.6023672029       -1.5409060836
 H        -4.8044736558       -6.1147860499       -4.1189702074
 H        -4.3405678083       -4.7426459642       -5.1999929795
 H        -3.4806031003       -6.3587492667       -5.3083825313
 H        -3.0114420030       -8.1174414966       -0.9697247877
 H        -1.4382361803       -8.1738918657       -0.4132580467
 H        -3.7646315088       -8.0122870824       -3.0883424597
 H        -2.1260192037       -8.5747035355       -2.8105857076
 H        -2.6126005199       -8.1029590679       -4.3954991737
 H         0.0940622778       -7.0048451599       -3.2922342308
 H        -0.7977996883       -6.2510317333       -4.7569334857
 H        -0.2315578818       -5.3139626512       -3.4461806449
 H        -2.8502868087       -8.0233576279        1.6044718487
 H        -1.8355676676       -6.5755686979        1.5149932898
 H        -5.2204345042       -3.6963361255        0.8089736033
 H        -6.1434116002       -3.4906759527        2.2422339649
 H        -6.5219075502       -7.1288797360        2.7259947026
 H        -6.5949268468       -5.9061039251        1.3859316037
 H        -6.6105818464       -5.5023120744        3.1710253219
 H        -4.3163690784       -6.1785988171        4.3515230788
 H        -4.1803173558       -7.7759982677        3.4738513196
 H        -2.9572510401       -6.4427438272        3.5847177177
 H        -4.2355354074       -1.7226999664        2.8372283963
 H        -5.4088750038       -1.3193139398        1.4066740931
 H        -4.2390802075        1.1298933986       -1.2402011390
 H        -2.7791649494        1.8974866119       -0.3268868475
 H        -2.3772258245        1.3228473683        1.7385063744
 H        -3.2835627058        0.1215300456        2.7018558397
 H        -3.9747026330        0.8891078092        1.2296572272
 H        -1.2284702969       -1.3494052044        2.3196284610
 H        -0.6382430308       -1.7709649429        0.7919791466
 H        -0.5466868092        0.0155754906        1.4888007888
 H        -2.9129719181        0.7342408049       -3.2622654886
 H        -3.4637310127        2.4411234850       -2.9169982315
 H         0.5596663251        4.1356646838       -2.3454771045
 H         1.3403302013        4.7187995704       -3.7850759667
 H         1.1869748696        1.8667429691       -3.5130789204
 H         1.0701748206        2.4857581882       -5.1901185669
 H         0.5512794851        0.9183592039       -4.7137442613
 H        -1.8346667772        1.0152177959       -5.2687095154
 H        -2.7160714308        2.5234269729       -5.0021299114
 H        -1.6750150576        2.4886938867       -6.2438086244
 H        -0.9654898852        6.0645946221       -2.2221751150
 H        -0.1277581520        6.6567341842       -3.7049332802
 H         1.7119689055        8.2443750710        1.1107753317
 H         0.5013854435        8.2802396258        2.3586671604
 H         2.1068673024        9.3812052421       -2.2092530284
 H         2.5309064969        8.5296700727       -0.7379517894
 H         1.6600735807        9.9818914893       -0.6648756596
 H        -1.6554872481        8.5580898712       -1.7244789326
 H        -0.5573502766        9.9940566361       -1.6461117901
 H        -0.4440036096        9.0512278760       -3.0392573484
 H         0.2221761312        5.6343081245        1.8019556725
 H         1.7749982190        5.7512908291        0.9468626147
 H         3.0687908710        3.8240943184        1.2594488728
 H         4.0302565160        3.9656014256        2.8760010921
 H         2.7712022043        3.9813012381        5.6413994217
 H         2.5559436817        5.6620637406        5.8636439571
 H         3.8614640483        5.0233789715        4.7169197385
 H         0.1956170438        5.8824446014        5.0228361113
 H        -0.2973109607        4.9122605247        3.5396816048
 H         0.0859646320        4.1293904364        5.1153721804
 H         4.6838814461        2.0864715746        1.3540585967
 H         2.9422713050        1.6365265767        1.4984502937
 H         5.2224042762       -1.6293705192        2.1509127592
 H         4.4438488256       -2.8529710070        3.1257568140
 H         4.9416767223       -1.0615991655        4.7771379313
 H         3.3745063234       -1.6038310068        5.2802469815
 H         4.1188757978       -0.0722560972        5.8216253936
 H         2.0227417462        1.2411427182        4.7446521226
 H         1.2902806129        0.4987257109        3.2404782725
 H         1.3055549418       -0.3249058978        4.7457859320
 H         4.6970024999       -4.0126118133        1.0050338239
 H         2.9149966975       -3.4602660824        0.9608927732
 H         0.7842783583       -0.5554790507       -1.4956582233
 H         2.1844533057       -0.3538857772       -0.6923779915
 H         2.1805594586       -0.4705303312       -2.3756620585
 H         5.2411780928       -3.0064490802       -2.6698738517
 H         4.3715275593       -1.6488443773       -3.2532647745
 H         3.8489578070       -3.1237221348       -3.8098452061
 H         3.5700549777       -4.9632257303       -2.5195792369
 H         4.0898149218       -4.9647608012       -0.7948015082
 H         2.4029814112       -4.8925030786       -1.3401127108
 Na       -1.1126647164       -3.2345308582       -1.5177510342
