155

 C        -3.1105641597       -5.6713372728       -4.5550389224
 C        -2.0894658363       -5.2357348482       -3.5022372972
 C        -1.2207106688       -6.2910087471       -2.8579497282
 C        -1.7842554021       -6.3147480184       -1.3405418408
 C        -2.6507125113       -7.5315483262       -0.8925741757
 C        -1.2784815729       -7.6915196116       -3.5378293347
 C         0.1903504629       -5.7478213164       -2.8301483351
 O        -1.9735709704       -4.0743507620       -3.1892723487
 O        -1.5090139364       -5.3977654527       -0.6158759206
 C        -2.9818992950       -7.3953064785        0.6144984904
 C        -4.0769520758       -6.2644960076        0.8514057933
 C        -4.6893230682       -5.9590698181        2.2855975082
 C        -4.3715017205       -4.3357161475        2.6000100773
 C        -5.0281832783       -3.3141656853        1.7067136614
 O        -4.5484536648       -5.5711093269       -0.0292170713
 O        -3.6062835736       -3.9957785966        3.4715975821
 C        -6.1933140773       -6.2689737811        2.2272583885
 C        -3.9659740404       -6.7585000084        3.4182438875
 C        -4.3352730877       -1.9662586763        1.8417407752
 C        -3.1307163104       -1.8023618670        0.9117380071
 C        -2.0889674137       -0.6333991451        0.9520319959
 C        -1.8379761311       -0.0982370369       -0.5720317617
 C        -2.1000744590        1.3899003680       -0.8745412755
 C        -2.7170409945        0.5188046648        1.8577447878
 C        -0.8630668892       -1.2447280749        1.6820852792
 O        -2.7835750924       -2.7656391071        0.1630090980
 O        -1.6301786537       -0.9002767196       -1.4793826401
 C        -2.0512802034        1.6834206841       -2.5220813900
 C        -0.5822991350        1.9276990573       -2.9265564256
 C        -0.2979801117        2.5096313188       -4.5087791534
 C        -0.5731700999        4.0666961560       -4.2659839131
 C         0.2784222216        4.9325342492       -3.3952997186
 O         0.3851635825        1.8984269291       -2.2247005911
 O        -1.5847688083        4.5238778724       -4.8121535400
 C         1.0883056306        2.2082898158       -5.0896787973
 C        -1.4779225976        2.0009622046       -5.3856476553
 C        -0.4645635115        6.2768078319       -3.0459536534
 C         0.6092681275        7.3066029916       -2.4623952513
 C         0.0645160559        8.3777974310       -1.4535057493
 C        -0.3927710479        7.5496021044       -0.0909049866
 C         0.5994408178        7.0759551690        0.8717165256
 C         1.1494090366        9.3491506403       -1.0721895749
 C        -1.1385499382        9.2488316405       -1.9575351731
 O         1.7737760162        7.3614158810       -2.7898171307
 O        -1.6413891851        7.3551785945        0.0798390776
 C         0.0842039506        6.3341058167        2.0941193367
 C         1.1108104847        6.0282581052        3.1083733510
 C         0.8182530903        4.9082135884        4.1733713577
 C         1.0163489224        3.4681202577        3.5418576228
 C         2.4208187310        3.1021485824        3.0650816394
 O         2.1700368112        6.6533676460        3.2308930540
 O         0.0658581310        2.7535934761        3.3010175075
 C         1.7376324842        5.2095644104        5.4251968355
 C        -0.6531944103        4.9325903895        4.6606636600
 C         2.5851934451        1.5102275084        2.7456245676
 C         3.6549537785        0.7686157118        3.4669805279
 C         3.3553622801       -0.7889233317        3.7199939124
 C         2.9290484311       -1.5748663154        2.4066567052
 C         3.5541784026       -2.9789009386        2.3495903935
 C         4.4921809328       -1.4441298002        4.6250330328
 C         1.9673386874       -0.9582499649        4.5222242371
 O         4.6730731581        1.3211416811        3.8453735307
 O         2.1350995409       -1.2201331532        1.5555468750
 C         3.6912367796       -3.5125606795        0.9941115256
 C         4.3352045824       -2.4997568538       -0.0781200866
 C         3.7096743401       -2.4685055107       -1.6553622958
 C         2.1958059149       -2.3634262919       -1.5793732571
 C         1.5905205436       -0.9995504582       -1.4864482440
 O         5.2489166617       -1.7459022661        0.0845788840
 O         1.4671392081       -3.3646396561       -1.6163756157
 C         4.4114891695       -1.3429546820       -2.4223284766
 C         4.0365360007       -3.8095172129       -2.2564488828
 H        -3.9345604483       -6.0720217297       -4.0105956401
 H        -3.5081946632       -4.7906320535       -5.1312863561
 H        -2.7420574138       -6.4264851311       -5.2758644672
 H        -3.7299410346       -7.4565711283       -1.2517628769
 H        -2.0764170923       -8.4405047658       -1.0809452527
 H        -2.2518202611       -8.1085090517       -3.4892522749
 H        -0.6087045960       -8.3533618630       -3.0353288913
 H        -0.9807823923       -7.4796667740       -4.5742181736
 H         0.8336105968       -6.3028667822       -2.1125726784
 H         0.5475453215       -5.8183560266       -3.8303071139
 H         0.3048344639       -4.7276952246       -2.5273550874
 H        -3.3034597987       -8.2998351207        0.9813895454
 H        -2.0606163119       -7.1120038539        1.1593771576
 H        -4.9479436080       -3.5718464919        0.6646136703
 H        -6.0819326306       -3.2992477846        2.1831200356
 H        -6.2920469578       -7.3661756328        2.0569125047
 H        -6.6990554480       -5.8873417906        1.3486514348
 H        -6.7341772205       -6.0741500141        3.1317907438
 H        -4.3336620419       -6.2660917043        4.3906039161
 H        -4.1603262132       -7.8087080096        3.3299217042
 H        -2.8804313410       -6.4798221914        3.3348293064
 H        -4.2236051691       -1.9323787461        2.8746888547
 H        -5.0426379560       -1.1273222991        1.6690688407
 H        -2.8807571512        1.8453324944       -0.3309244575
 H        -1.2201792212        1.9027783626       -0.4403021761
 H        -1.9579318917        1.3396558283        1.8713991033
 H        -2.8029879689        0.2092150508        2.8507022139
 H        -3.7208531917        0.8198738218        1.4834589759
 H        -1.2776307137       -1.8092103349        2.5400230151
 H        -0.4003744013       -1.9099022331        1.0024545798
 H        -0.0832833955       -0.4553295017        1.9789068491
 H        -2.7959363380        1.0668391595       -3.1028148667
 H        -2.4343921680        2.6489004230       -2.5363892923
 H         0.5322139986        4.2479179559       -2.5659445008
 H         1.2016766661        5.1816252597       -3.9164183098
 H         1.8158794088        2.8305079261       -4.6500140630
 H         1.1162566936        2.4703979693       -6.1147855874
 H         1.2906945085        1.1428111540       -4.9625368258
 H        -1.4490767166        0.9553957291       -5.2810922873
 H        -2.5261633815        2.2229379144       -4.9620203787
 H        -1.2968164065        2.2311216488       -6.4720799143
 H        -1.3732793186        6.0654892608       -2.4239067982
 H        -0.8880657265        6.7446088768       -3.9629228061
 H         1.2334836635        6.4391554751        0.3450291185
 H         1.1598553333        7.9515240375        1.2735734942
 H         1.5698938876        9.9612186677       -1.9735932724
 H         2.0942234639        8.9381547473       -0.5969360837
 H         0.9430866692       10.1058285326       -0.3506251882
 H        -2.0391775601        8.6628829997       -1.9496317417
 H        -1.3651313222       10.0059732274       -1.2055639397
 H        -0.9200341789        9.7712935477       -2.9095344619
 H        -0.6791258690        6.8844132547        2.5566783610
 H        -0.4084181485        5.3261570457        1.9940710768
 H         2.6736001746        3.6436991822        2.1220936871
 H         3.2092582739        3.5878658161        3.5603842987
 H         1.4546965144        4.6673454791        6.2848759689
 H         1.7358964084        6.3156265081        5.5178010427
 H         2.6928099926        4.8361150625        5.1340313682
 H        -0.8321476722        5.8082035866        5.2307597677
 H        -1.4054149568        4.9829461088        3.8910960050
 H        -0.7745445257        4.0641532602        5.2813779549
 H         2.8811315256        1.5024076844        1.5910528415
 H         1.5930548393        0.9040862547        2.7228283955
 H         4.5618330242       -2.8475147895        2.7332170348
 H         3.0865238247       -3.6609270965        3.0815564617
 H         5.4309418972       -1.5837554235        4.1678299716
 H         4.0827432089       -2.4298928620        4.9121736708
 H         4.6841188842       -0.7154773034        5.4601690922
 H         2.0652973772       -0.7269351260        5.5649665831
 H         1.2747280053       -0.3277525331        4.0551129795
 H         1.6668583050       -2.0185284851        4.4246297463
 H         4.3861437685       -4.3307007166        0.9692567276
 H         2.7178291300       -3.9313438160        0.5834844295
 H         0.6936797538       -0.8132399864       -0.9411756376
 H         2.2324295723       -0.1334672456       -1.1690208885
 H         1.2322060321       -0.6680393223       -2.4854730311
 H         5.4944688574       -1.5362661869       -2.5655195216
 H         4.3636191233       -0.4262290636       -1.8911714212
 H         3.9514705278       -1.2460755646       -3.3577504040
 H         3.3785729149       -4.5503754770       -1.7961127990
 H         3.7182241258       -3.6789345548       -3.3312081316
 H         5.0883234715       -4.0080973443       -2.0936008242
 Na       -0.8574343225       -3.0249167880       -1.2533643937
