155

 C        -1.0289467250       -7.6956730716       -0.0079013582
 C        -1.6791558399       -6.3618352473        0.0336538791
 C        -3.2275935249       -6.1500060073       -0.2602625698
 C        -3.9328074582       -5.0967115256        0.6129660584
 C        -4.2415801793       -3.6447667808        0.1165360051
 C        -3.2072188288       -5.7126286871       -1.7538905283
 C        -3.9143436559       -7.4719484463       -0.0532363286
 O        -0.9310377493       -5.4280570888        0.2848073033
 O        -4.2700022079       -5.4449853043        1.7385551444
 C        -4.7519564256       -2.8161316113        1.3748468903
 C        -3.5375444341       -2.4384013816        2.3252149571
 C        -3.5638003822       -1.2496665106        3.4016879199
 C        -3.3786955036       -0.0742903885        2.3856771546
 C        -1.9869877821        0.2923532916        1.8296264756
 O        -2.4376514859       -2.8753478140        2.0934113822
 O        -4.4052078556        0.4682668694        2.0219885369
 C        -5.0349061286       -1.1566425413        4.0731770575
 C        -2.3675544514       -1.3473970471        4.4580091875
 C        -2.1745873414        1.4663459779        0.8187133989
 C        -0.7900898308        1.9252152534        0.3691299121
 C        -0.7446726309        3.2367819774       -0.5345736590
 C         0.0908137390        4.3888468295        0.2667301125
 C        -0.7375633826        5.6870465612        0.6343516700
 C         0.0599893346        3.1041235363       -1.8559222800
 C        -2.0941747424        3.7455435272       -0.9660039748
 O         0.2500524570        1.4411677996        0.7928243864
 O         1.3171211504        4.4462762496        0.3858332574
 C        -0.3123665221        6.4465238599        1.8688032033
 C        -0.7248323089        5.7057020021        3.1709016357
 C        -0.4157522893        6.4481957116        4.5006576588
 C         0.9750288987        5.8415884197        4.9133726925
 C         0.9608094736        4.2813194708        5.2831823943
 O        -1.2529174050        4.6225545514        3.1611221303
 O         2.0205502478        6.4691684672        4.7875293778
 C        -0.3850325156        7.9962345241        4.2946835373
 C        -1.4990730230        6.1097458416        5.6001886066
 C         2.3865886192        3.6756104196        5.2794770301
 C         2.8637109259        3.1836024516        3.9090906749
 C         4.4447997343        3.1890488037        3.6177524586
 C         4.8983368141        2.0410253659        2.7195706841
 C         6.2799116430        2.0684660215        2.0527671413
 C         4.6567587478        4.5701180899        3.0078388752
 C         5.4058548085        3.2113446145        4.9143732079
 O         2.0249203610        2.9508370438        3.0223630349
 O         4.1347777908        1.0910784362        2.5829322951
 C         6.2973956250        1.1301559637        0.8252957502
 C         5.3732026516        1.6298862385       -0.4133046892
 C         5.1271842613        0.6845004613       -1.5711789987
 C         3.5977246909        0.1988959071       -1.2969847002
 C         3.3516773148       -1.2408365150       -1.8286389793
 O         4.8743189081        2.7567970373       -0.3295562445
 O         2.7789596483        0.8556391099       -0.7486492797
 C         5.1068549533        1.4894675254       -2.8667685994
 C         6.1619347520       -0.4470189719       -1.6141650525
 C         1.8330959802       -1.5776698263       -1.7584350819
 C         1.4694539926       -2.4649948300       -2.9863871919
 C        -0.1020772443       -3.0187197248       -3.1908760108
 C        -0.6833017230       -1.9719675068       -4.2615006185
 C        -1.4896670813       -2.4682533780       -5.4576626355
 C        -0.0030283326       -4.4486577680       -3.7275018646
 C        -0.9736016651       -2.9048568655       -1.9652282547
 O         2.3059739248       -3.0468823615       -3.5886701111
 O        -0.4048524931       -0.7904438416       -4.1107371462
 C        -2.9432714893       -2.7135539433       -5.1903095315
 C        -3.6357645539       -3.0594103435       -6.6618511990
 C        -5.1308688921       -3.2329926967       -6.8140304243
 C        -5.2233239541       -4.7758643068       -6.9074223324
 C        -5.3134462489       -5.4749771918       -8.2442162154
 O        -2.9220070815       -3.1024273134       -7.6472695149
 O        -5.2851240019       -5.4187384858       -5.8715831791
 C        -5.9079357501       -2.7123233055       -5.5995297513
 C        -5.7603484812       -2.5358449318       -8.0857409971
 H        -1.6209273026       -8.3712782126        0.5513577748
 H        -0.7483926562       -8.0463511326       -0.9868463613
 H        -0.0665332497       -7.5336219570        0.5110132613
 H        -3.3599428129       -3.1362383311       -0.1460154425
 H        -4.9680091162       -3.7474040565       -0.7567746259
 H        -3.3053250198       -4.6189739914       -1.8553875600
 H        -4.0158915145       -6.0776306867       -2.3057104097
 H        -2.3114891570       -6.1286138676       -2.2619186482
 H        -3.6839129402       -7.9530215907        0.8827055479
 H        -4.9801607567       -7.2907572339        0.1153925418
 H        -3.8723570923       -8.1151532365       -0.9397817399
 H        -5.3207213182       -1.9183096738        1.0832930383
 H        -5.2407181850       -3.5756220527        2.0366588896
 H        -1.2012533722        0.5255643062        2.6070562539
 H        -1.5923596661       -0.5670083436        1.2261014075
 H        -5.1678497956       -0.1765302065        4.5103031616
 H        -5.2133276284       -1.9883000091        4.6985293388
 H        -5.7071064317       -1.3067417797        3.2052668763
 H        -2.6769068115       -2.1787751504        5.0274539049
 H        -1.4082256547       -1.3672295384        3.9341524879
 H        -2.4804212716       -0.4867621986        5.1102058113
 H        -2.6505786612        2.3719565871        1.2927179876
 H        -2.6340217441        1.0620385418       -0.0617675474
 H        -0.7916985077        6.2048095281       -0.2553137994
 H        -1.7475047909        5.3665556969        0.8940714848
 H         1.0896296562        2.8603951070       -1.7170524390
 H         0.0875912802        4.0640195568       -2.3681182895
 H        -0.2010537674        2.4232134192       -2.6153713729
 H        -2.5541728151        3.0880355281       -1.7700874995
 H        -2.7748962050        3.7581225932       -0.1115275830
 H        -1.9546880067        4.7639253607       -1.3690458449
 H         0.8215542496        6.4295108058        1.8575713569
 H        -0.6600817891        7.4408691334        1.9724047420
 H         0.5810609290        4.2787491178        6.3377037785
 H         0.1860314383        3.7029518988        4.7351065505
 H         0.1396279631        8.3176881098        3.4655733943
 H         0.0548478952        8.4928490554        5.1544307386
 H        -1.3513860609        8.4507372619        4.1497834566
 H        -2.4701599223        6.4847178141        5.3939030254
 H        -1.4806347324        5.0403999851        5.8424711647
 H        -1.0875074120        6.7336430295        6.4297785526
 H         2.5167306950        2.8192648988        5.9554424883
 H         3.0293753623        4.5056674951        5.7064181968
 H         6.4616238651        3.0870613149        1.5856627060
 H         7.0543094035        1.8153799758        2.7847000059
 H         5.7521453793        4.7623431290        2.7096357601
 H         4.3772412354        5.3108189061        3.7640157457
 H         4.2344108464        4.7213255425        2.0416749047
 H         6.5184045236        3.1726412419        4.5701510597
 H         5.5208813557        4.1177273786        5.4603853534
 H         5.3565333441        2.3291468683        5.5641186844
 H         7.3072954585        0.9956259599        0.5038881683
 H         6.0156078077        0.0905531986        1.1043108320
 H         3.6137071045       -1.3793722240       -2.9039600648
 H         3.8925344327       -2.0607817400       -1.2800935667
 H         4.1400598833        2.0716751491       -2.9181176142
 H         5.0395698143        0.7600389134       -3.6264972781
 H         5.9924938485        2.1327731340       -3.0369816583
 H         6.1097367267       -1.0850424033       -2.4164216004
 H         7.2315431552       -0.1061830103       -1.5339664943
 H         6.0159053749       -1.0900929408       -0.6707948318
 H         1.2897096415       -0.6229852010       -1.6489717859
 H         1.3878504271       -2.2101155073       -0.9180432918
 H        -1.3783096652       -1.6889823480       -6.1614532044
 H        -1.0447028140       -3.3375844353       -5.9761832447
 H         0.3099139204       -4.6105894887       -4.6930274097
 H        -1.0430612655       -4.8842864303       -3.9230064181
 H         0.6676006242       -5.0726588730       -3.0840796028
 H        -1.0150183529       -1.8482730606       -1.7522286102
 H        -1.9783112239       -3.2989663619       -2.1886534144
 H        -0.5169986144       -3.5066640753       -1.1287972257
 H        -3.1559546871       -3.6171375569       -4.5847614215
 H        -3.3755014870       -1.8982020849       -4.6076993676
 H        -4.8829674593       -4.8036638433       -8.9214564868
 H        -5.0824528409       -6.4967462629       -8.0445982140
 H        -6.3428349168       -5.4674347676       -8.6689942679
 H        -5.2740375276       -2.0818458397       -5.0539369507
 H        -6.2966681567       -3.6198976320       -5.0581541441
 H        -6.6925357402       -2.0869989099       -5.9755754171
 H        -6.4345376034       -3.2101859496       -8.6065880487
 H        -6.1701687713       -1.6294148030       -7.7952013235
 H        -5.0511007360       -2.3606605366       -8.8678545709
 Na        2.6748859303        2.6294244306        0.7834073654
