155

 C        -2.5964824610       -5.1028033137       -4.5476047846
 C        -1.7038550002       -4.9168130688       -3.3321028199
 C        -1.0449558788       -6.2410919459       -2.7913031316
 C        -1.4276529902       -6.1794593044       -1.2398767797
 C        -2.2522567056       -7.2687547551       -0.6778498321
 C        -1.6447642353       -7.5755840298       -3.4130104999
 C         0.5638105948       -6.2101261220       -2.9135776745
 O        -1.4149895990       -3.8098272883       -2.8754387063
 O        -0.9577116750       -5.2864907047       -0.5166838664
 C        -2.7204544767       -6.9916885621        0.7634657206
 C        -4.1979039526       -6.4923061052        0.7779722285
 C        -4.8516006265       -5.7328810902        2.0556882853
 C        -4.1685935770       -4.2983645305        1.9457191022
 C        -5.0216028088       -3.1633466036        1.2135521907
 O        -4.8986224725       -6.7008709768       -0.1656122483
 O        -3.0059934816       -4.0537874135        2.2663678627
 C        -6.4398464741       -5.8130073698        1.9178106496
 C        -4.4060578782       -6.3491567400        3.3401428688
 C        -4.3822977747       -1.8362433444        1.4256738579
 C        -3.0668398314       -1.6736778532        0.6867004778
 C        -2.1372651506       -0.4417199413        0.8922707733
 C        -1.8142748589        0.0165875327       -0.5106760139
 C        -2.2739492046        1.4051964642       -1.0539664638
 C        -2.8213995233        0.6106643336        1.8670925585
 C        -0.8170734065       -0.9341713229        1.5191387775
 O        -2.7835312865       -2.5963514729       -0.0464401464
 O        -1.0182515163       -0.6115031566       -1.1209690776
 C        -1.9817501711        1.6532063442       -2.5563217590
 C        -0.5470559224        2.0583034345       -2.8359959679
 C        -0.2687441284        2.6287091477       -4.3024024402
 C        -0.9340298772        4.1291884298       -4.2165040072
 C         0.0020091272        5.2802337774       -3.9900291507
 O         0.2690535029        2.2864447307       -1.9455025219
 O        -2.1088409907        4.2928144800       -4.0456095402
 C         1.2092271686        2.6411299542       -4.6003942995
 C        -0.9889955637        1.7575324992       -5.4024018957
 C        -0.3428737565        6.0161216977       -2.6504391939
 C         0.3947310433        7.3951025947       -2.6148742740
 C        -0.1143819208        8.3092104835       -1.3690997782
 C        -0.5804250131        7.5242840955       -0.2534006757
 C         0.2380452600        7.2640288790        1.1162068314
 C         1.0746919529        9.2037388154       -0.8683740266
 C        -1.3247228288        9.1604314115       -1.9243563919
 O         1.2536762171        7.8004996836       -3.3813117163
 O        -1.6905321316        6.9661336042       -0.2313934274
 C        -0.5117756675        6.2441392436        2.0460262810
 C         0.6235228123        5.4688037065        2.8192209913
 C         0.2083522137        4.6904897809        4.1233541097
 C         0.4343755649        3.2144018858        3.6184156166
 C         1.8813695787        2.6793403406        3.3799594917
 O         1.7947055218        5.5160135997        2.4206389648
 O        -0.5284537149        2.5822583648        3.2336089365
 C         1.1215424280        5.1202926581        5.1942275192
 C        -1.2871664815        5.0192859741        4.4209830488
 C         1.8515035350        1.1389686427        3.4715865328
 C         3.1247698538        0.5854363534        4.0453432657
 C         3.3062515201       -1.1144717566        4.0031543035
 C         3.3028415706       -1.7430365836        2.5275153840
 C         4.2063919699       -3.0656502457        2.3131821758
 C         4.6330505689       -1.3983236988        4.8121828341
 C         2.1162000015       -1.6339433212        4.8816048045
 O         3.9865287073        1.2475305995        4.5535788203
 O         2.7615191447       -1.2940087453        1.5715333968
 C         4.0335784099       -3.4174370390        0.8097001813
 C         4.7418635064       -2.4882120159       -0.1908004708
 C         4.1004375378       -2.5521212508       -1.5880050429
 C         2.6010193587       -1.8798002731       -1.5348380707
 C         2.3910123992       -0.4088027806       -1.7512743372
 O         5.8058857619       -1.9365608329        0.0674895491
 O         1.6748691213       -2.6381984541       -1.2811894494
 C         4.9782833280       -1.7268231293       -2.6193718645
 C         4.1167611808       -4.0206703332       -2.2319676102
 H        -3.5718240427       -5.4818441264       -4.2115753855
 H        -2.7695676465       -4.2269777343       -5.1376844941
 H        -2.1510909603       -5.8937096049       -5.1392946084
 H        -3.2287026333       -7.5808374398       -1.2191938448
 H        -1.6993517467       -8.2519600941       -0.8261811823
 H        -2.7226148319       -7.5428108595       -3.5083039114
 H        -1.1953326812       -8.4161510435       -2.8220563773
 H        -1.1488028840       -7.6226865459       -4.3978559887
 H         0.9905051954       -7.0597290369       -2.3114008122
 H         1.0101218584       -6.3254540351       -3.9895686482
 H         0.8574344954       -5.2039431425       -2.4819693814
 H        -2.5052152822       -7.8221195202        1.4770087548
 H        -2.1379331292       -6.1589755855        1.2495154017
 H        -5.0882121048       -3.3717462525        0.1378444404
 H        -6.1494680311       -3.1336369491        1.4413371528
 H        -6.7820038942       -6.8086369542        2.0248476776
 H        -6.9175604581       -5.3543296510        1.0147910981
 H        -6.8509625505       -5.2388459248        2.7818831313
 H        -5.1364858130       -6.1709917377        4.0723559714
 H        -4.3405971030       -7.4377510343        3.2619597981
 H        -3.4435124052       -5.9556776779        3.6707603667
 H        -4.3248707700       -1.6951430534        2.5163136175
 H        -5.0467998031       -0.9834146840        1.0941941352
 H        -3.3289541295        1.4987502625       -0.8221413056
 H        -1.9259018597        2.1960255545       -0.3377932060
 H        -2.2376127231        1.5035818903        2.0380485678
 H        -3.0680250461        0.1249735078        2.7982857394
 H        -3.7563102413        0.8909754761        1.3868277427
 H        -1.0183829936       -1.7728259437        2.1906834757
 H        -0.1796669907       -1.2934658075        0.7093210337
 H        -0.3365683181       -0.1929612997        2.0858766054
 H        -2.3898285651        0.7220624700       -3.0506236132
 H        -2.7000906381        2.3891094365       -2.7943687458
 H         1.0632427291        4.9402617731       -4.0594232117
 H        -0.0463770285        6.0531896560       -4.7773155070
 H         1.7797002777        3.3040467798       -3.9470231135
 H         1.3894965018        2.7534659915       -5.6811732845
 H         1.6771930625        1.6596066787       -4.3883164095
 H        -0.5332105564        0.7098382687       -5.4088501175
 H        -2.0107399661        1.7774133548       -5.4214961320
 H        -0.7742057742        2.1414787771       -6.3413422628
 H         0.0868556235        5.4694857609       -1.7776101622
 H        -1.4504977869        6.2752531178       -2.5822730944
 H         1.2147518146        6.8605106005        0.9904869648
 H         0.4597535029        8.1625775583        1.7643166915
 H         1.2006525046        9.9749000965       -1.5581959712
 H         1.9967349667        8.7597792487       -0.8113965992
 H         0.8432270311        9.7426925496        0.0783187808
 H        -1.9984828033        8.4589610546       -2.2838528587
 H        -1.7459566965        9.8433206922       -1.1334682424
 H        -1.0288469647        9.7069369565       -2.8402645065
 H        -1.2837996598        6.7994187833        2.5541102309
 H        -1.0866895165        5.6002971257        1.2738453858
 H         2.2575337358        2.9603386045        2.3584801698
 H         2.5678218680        3.0572665028        4.0761681266
 H         1.0473362731        4.4196093146        6.0658172717
 H         0.7886077561        6.1221717433        5.5831736702
 H         2.0500352394        5.2961414024        4.7458497318
 H        -1.3596627382        6.0607162693        4.6501753357
 H        -2.0679281795        4.6567251027        3.7093291426
 H        -1.6398073709        4.5329339722        5.3647575887
 H         1.5728132268        0.6411753820        2.4682585892
 H         0.9340497482        0.9349048956        4.1060614198
 H         5.2119767900       -2.7473267603        2.5597726997
 H         3.7688054007       -3.8484388802        2.9667391585
 H         5.4400794496       -1.0452988944        4.1476092639
 H         4.7328186988       -2.4827025611        5.1151298293
 H         4.5022794568       -0.8644960769        5.6992067189
 H         2.3064157698       -1.4615863477        5.9268132112
 H         1.1996546977       -1.0590324839        4.5558557394
 H         1.8921185536       -2.7310605657        4.7333011322
 H         4.3051553861       -4.4253954025        0.7084450092
 H         2.9345099707       -3.3903001353        0.7749344923
 H         1.3643573098       -0.1881353002       -1.9881967003
 H         2.5525585691        0.1512139406       -0.8446200307
 H         3.1373764159        0.0259022936       -2.3706147833
 H         5.8853128269       -2.1726110386       -2.7948507706
 H         5.0027734542       -0.6878715923       -2.2602357429
 H         4.3542790787       -1.6555528756       -3.5296186368
 H         3.2827853007       -4.6805243605       -1.9771182386
 H         4.2849083907       -3.7984468905       -3.2966921825
 H         5.0509786848       -4.3951914419       -1.9492575547
 Na       -0.6637438965       -3.0134041369       -0.8839414301
