155

 C        -2.5164503840       -4.9988073944       -4.7501949059
 C        -1.4894020779       -4.6852537818       -3.6638722062
 C        -0.9304124743       -5.8991160621       -2.6502514723
 C        -1.3079487607       -5.8139519960       -1.1933266335
 C        -2.0004238430       -6.9190193298       -0.4583178174
 C        -1.3454526718       -7.3116992523       -3.2991343176
 C         0.5822610499       -5.7568403755       -2.8106539242
 O        -1.1530556639       -3.5543206739       -3.3910526979
 O        -0.8799572786       -4.8943124802       -0.4853871200
 C        -2.4770519881       -6.6184500326        0.9924159824
 C        -3.9821311707       -6.5017849394        0.9041501102
 C        -4.9652739059       -5.6673270382        1.9707910831
 C        -4.4376581596       -4.2887489526        1.8613960529
 C        -4.9321037922       -3.3245122824        0.8316974981
 O        -4.5196427229       -6.9686970189       -0.0386542013
 O        -3.4741109218       -3.9977223734        2.5788425866
 C        -6.3579405620       -5.7093726729        1.3923752045
 C        -4.9709366311       -6.2272086218        3.4181640971
 C        -4.4212514666       -1.8915395624        1.0923528011
 C        -2.9677696725       -1.8884767595        0.5240455178
 C        -1.9949044492       -0.6123056235        0.8622748540
 C        -1.7051040454        0.0491415757       -0.6021110512
 C        -2.2732340299        1.4134112073       -0.9476847066
 C        -2.7147236016        0.3268161274        1.8025182306
 C        -0.6583889388       -1.0017862196        1.5151794356
 O        -2.6512862630       -2.7393133138       -0.2533537298
 O        -0.8202817091       -0.4775501963       -1.3144778585
 C        -1.9944991667        1.7179571903       -2.5174500704
 C        -0.5496230925        2.2128914465       -2.7792097183
 C        -0.1382840388        2.8890888464       -4.1623791982
 C        -1.0154950038        4.2332228276       -4.3845306283
 C        -0.3277121846        5.5595763999       -4.2208163034
 O         0.2081436522        2.0398813202       -1.8740026459
 O        -2.2346896773        4.0654343145       -4.5472213623
 C         1.4067360318        3.1032367097       -4.2738398441
 C        -0.6019699872        1.8317507880       -5.2778326711
 C        -0.8934180026        6.4116899807       -3.0706939661
 C         0.0573914626        7.5537561160       -2.7028792754
 C        -0.3606389019        8.4906143483       -1.4947095776
 C        -0.5888146328        7.4465392880       -0.1834901901
 C         0.3878897156        7.3430914572        0.9939706432
 C         0.7829145443        9.5165026390       -1.1188125304
 C        -1.7029662487        9.0250687908       -1.8390196390
 O         1.1081804430        7.7736186997       -3.3000625342
 O        -1.6581188880        6.8772137770       -0.1526377925
 C        -0.3246087108        6.4568226615        2.1545912519
 C         0.4354806786        5.1467504921        2.5868656863
 C        -0.1936147196        4.4724525046        3.9472118628
 C         0.0942102087        2.9457876552        3.8632307155
 C         1.3454632575        2.3572771172        4.4875844298
 O         1.4670528886        4.8233904188        2.0459108227
 O        -0.7744538209        2.2536292113        3.3932861855
 C         0.3692333356        5.2601342671        5.0958388851
 C        -1.7361792385        4.6306805277        3.9179081412
 C         1.5538889302        0.7781130738        4.2364898962
 C         3.0147932730        0.3468726677        4.4596990106
 C         3.3668482237       -1.2458195951        4.2509515947
 C         3.5170798528       -1.6618373942        2.7595092555
 C         4.7503113848       -2.5543796412        2.3182133199
 C         4.5572899814       -1.6350105915        5.1234801523
 C         2.1306000298       -1.9680519707        4.9031428318
 O         3.8994565883        1.1290242339        4.7059017975
 O         2.6704808567       -1.4311635599        1.9453450493
 C         4.5116481708       -3.2313746453        0.8862587120
 C         5.1317583341       -2.5803117410       -0.3535284663
 C         4.2737455812       -2.6080637082       -1.6770242626
 C         2.8020359165       -2.0725378152       -1.3217088282
 C         2.5262889147       -0.5938148995       -1.1638226815
 O         6.1414883392       -1.9263750280       -0.2819135248
 O         1.9380919675       -2.9075803480       -1.1568693736
 C         5.0551278688       -1.8260300499       -2.7400879851
 C         4.1986005075       -4.1325200999       -2.0017815558
 H        -3.2362252803       -5.6434578629       -4.3007148177
 H        -3.0196277261       -4.0780543521       -5.1434535091
 H        -2.0682075508       -5.5669001914       -5.5853585404
 H        -2.8106856825       -7.4610062552       -1.0279229769
 H        -1.3666606473       -7.8456936218       -0.3868911588
 H        -2.3851436616       -7.6223276930       -3.1080875711
 H        -0.8149604122       -8.0556768058       -2.7306071067
 H        -1.0228140783       -7.3034721726       -4.3806115842
 H         1.0398238438       -6.7533959387       -2.4689205385
 H         0.9782121261       -5.7953865465       -3.8728372005
 H         0.9519271258       -4.7964245120       -2.3393126801
 H        -2.2203639269       -7.3819781087        1.6920830798
 H        -2.0006686213       -5.6913228864        1.3441419819
 H        -4.5753187187       -3.6811954886       -0.1808709070
 H        -5.9924652731       -3.2274074317        0.5267276002
 H        -6.6299199582       -6.8188521195        1.4530332030
 H        -6.3555224860       -5.5200369083        0.3025129667
 H        -7.0875968040       -5.0505970401        1.8151011649
 H        -5.6494936548       -5.5787080718        4.0465385563
 H        -5.2047765035       -7.2321986886        3.5421177581
 H        -3.9680349411       -6.1850625012        3.8336794498
 H        -4.4676279836       -1.4665739524        2.0992930427
 H        -4.8834055287       -1.2127821662        0.3444229188
 H        -3.3453726068        1.2956892943       -0.6792611877
 H        -1.7489263692        2.1123798902       -0.2861715256
 H        -2.1163541723        1.2720478448        1.8572022208
 H        -2.7417646978        0.0302539111        2.8041479204
 H        -3.7610162862        0.5931321267        1.5572479101
 H        -0.8467102271       -1.2795340170        2.5374406137
 H        -0.1766112306       -1.8393202576        1.0997898286
 H         0.0818574690       -0.1470126028        1.4449104646
 H        -2.3501374585        0.8920285818       -3.0924864275
 H        -2.6119479934        2.5517560693       -2.9143490223
 H         0.6794712929        5.3556111534       -3.8886119563
 H        -0.4312870502        6.1858696582       -5.1352418084
 H         1.6301813509        4.0757074036       -3.8241650251
 H         1.7261405039        3.2477387953       -5.3093912554
 H         1.9763390071        2.2814117591       -3.7616407326
 H        -0.2187728690        0.8479091321       -5.1420245302
 H        -1.6783734513        1.6324093994       -5.1146862981
 H        -0.2819353538        2.1179192325       -6.3040253324
 H        -0.9911117726        5.9695818777       -2.0296463476
 H        -1.9304786636        6.7672577912       -3.2528043016
 H         1.2715833391        6.8291046698        0.5872127061
 H         0.7823364360        8.2988200417        1.2026405301
 H         0.8791908534       10.3271715720       -1.9138949691
 H         1.6850118808        8.9303429571       -1.1415581993
 H         0.7086256346        9.8805847278       -0.0392135532
 H        -2.4629376875        8.2852260114       -1.6868911850
 H        -2.0550939415        9.8670043331       -1.2516810946
 H        -1.6549696050        9.2738413860       -2.9334316506
 H        -0.5323645255        7.1857252238        3.0092005266
 H        -1.2935531989        6.1401720592        1.7741156785
 H         2.2731895665        2.7583764681        4.1377261633
 H         1.1451767978        2.5169569358        5.5786222509
 H         0.2482038924        4.8324818140        6.0985877710
 H        -0.2268002030        6.2135147531        4.9737688391
 H         1.3962859588        5.5047479747        4.8964199403
 H        -2.0160890031        5.7209085824        3.9666041428
 H        -2.2854540127        4.3020887424        2.9975950189
 H        -2.1760755608        4.1771951058        4.8140936645
 H         1.3008920768        0.6473605697        3.0863884704
 H         0.8109709916        0.2263205870        4.7057999913
 H         5.5912403844       -1.8615126878        2.1918752233
 H         4.8916999402       -3.3136789010        3.0548604375
 H         5.4968925498       -1.3276783661        4.6812007883
 H         4.5643672455       -2.7405064477        5.1269090742
 H         4.3133325922       -1.2215740264        6.1521607925
 H         2.2076036306       -1.7350638419        5.9991543760
 H         1.1293358402       -1.7134405126        4.6167224662
 H         2.2373479777       -3.0721396753        4.8657698456
 H         4.9084322712       -4.2161627666        1.1318084122
 H         3.4740973920       -3.5072603518        0.7989160679
 H         1.6631391735       -0.4630399588       -0.5985152222
 H         3.3132142071       -0.0364272843       -0.6577743734
 H         2.4999600534       -0.0766811523       -2.1015991941
 H         5.9609381721       -2.2656056460       -2.7101096823
 H         5.2006380624       -0.7928007352       -2.5226466488
 H         4.6789453043       -2.1449590580       -3.6545758694
 H         4.0217508778       -4.6991867190       -1.1177493892
 H         3.2936333177       -4.2836302274       -2.6036057754
 H         5.1290662711       -4.4808118362       -2.4187547020
 Na       -0.3744112179       -2.8935657283       -1.3657992379
