155

 C        -2.7107267599       -5.7800821833       -4.2231553725
 C        -1.6288978177       -5.2205292605       -3.3286331401
 C        -0.4678044582       -6.2156580652       -2.7631443977
 C        -0.7025485552       -5.9645750097       -1.2449785822
 C        -1.6067384064       -7.0842929722       -0.5158142944
 C        -0.6259508650       -7.7396608409       -3.2559378606
 C         0.8830970494       -5.7179957374       -3.2766484265
 O        -1.5113369068       -3.9829337509       -3.3147829027
 O        -0.3239376090       -4.9717901121       -0.6475339838
 C        -2.5024307475       -6.5911423558        0.7284868675
 C        -3.9345886281       -6.1072774614        0.3478711660
 C        -4.8565439758       -5.6473794006        1.5779686292
 C        -4.6405695427       -4.1190478159        1.6402481842
 C        -5.1068787713       -3.3700593848        0.3264004064
 O        -4.3330027277       -6.0318944051       -0.7726873604
 O        -4.0146961562       -3.6215330276        2.5596567527
 C        -6.3312079101       -5.7922089760        1.0806262688
 C        -4.4959098927       -6.4284197924        2.8184704755
 C        -4.6490225436       -1.8378593179        0.5159068740
 C        -3.1385189483       -1.7148058547        0.0999061565
 C        -2.2881685561       -0.4719561494        0.6354910469
 C        -1.5383469615        0.2051186327       -0.6540817923
 C        -2.0440188743        1.5912220476       -1.0588548092
 C        -3.1518602068        0.4636435646        1.4304088654
 C        -1.0204059935       -1.1432341965        1.4200061102
 O        -2.5902948820       -2.7085657696       -0.3585674031
 O        -0.8680467007       -0.4543762200       -1.3603576729
 C        -1.8233877069        1.9531713046       -2.5461681445
 C        -0.4361960810        2.6476096123       -2.8913673007
 C        -0.0837536504        3.0432192902       -4.4029531183
 C        -0.7901777984        4.4328282913       -4.5121968847
 C         0.0116750424        5.7376234371       -4.2800310648
 O         0.3149691752        2.8991091528       -1.9998977553
 O        -1.9960627737        4.3969779331       -4.7413750118
 C         1.4670649331        3.1724236444       -4.3562381164
 C        -0.5976113007        1.9122333964       -5.3658459036
 C        -0.7438489901        6.6880357127       -3.3887138974
 C        -0.0242567460        7.5335687636       -2.4663881770
 C        -0.8591544846        8.2261686027       -1.3233999119
 C        -1.1777788397        7.1292220360       -0.1471610731
 C        -0.0135603584        6.4156317654        0.5285212600
 C        -0.0173786262        9.4411900255       -0.7740757737
 C        -2.2487942879        8.7405140015       -1.6700016633
 O         1.2138680906        7.5954214904       -2.4574007345
 O        -2.3370477142        6.9134823485        0.0451314940
 C        -0.3491869866        6.1291630655        2.0341789750
 C         0.1294422218        4.6821630304        2.3005408890
 C        -0.3603500649        4.0763439718        3.7509396006
 C         0.0641542339        2.5690270309        3.9163880380
 C         1.4684044500        2.1513303335        4.1272311437
 O         0.8980532751        4.0594487614        1.5860633648
 O        -0.8126138809        1.7057076610        3.9122843941
 C         0.2224856268        4.9188041074        4.8407358697
 C        -1.9170620219        3.9968709177        3.7901369118
 C         1.5234735795        0.7220982768        4.5803524992
 C         2.9999300284        0.3432596134        4.6936339751
 C         3.3963724588       -1.2616973695        4.8460925767
 C         3.7446526593       -1.7858820730        3.3318890310
 C         5.2289401325       -1.9258719398        2.6891994459
 C         4.7365252624       -1.5539718524        5.5675920565
 C         2.2212253673       -2.0958380551        5.1755805045
 O         3.8179168546        1.2111966195        4.7857861303
 O         2.7490741373       -1.8649461561        2.6232714867
 C         5.1300322117       -2.7676628155        1.3803282079
 C         5.1521683683       -1.8104687856        0.2251697694
 C         4.4812287294       -2.3588760844       -1.1103768058
 C         2.9764325752       -1.9470269924       -1.1602680628
 C         2.7045579597       -0.5137200312       -0.9985845380
 O         5.4873804496       -0.6484125320        0.2885876831
 O         2.1257671259       -2.8008220668       -1.4976935357
 C         5.2087180431       -1.6371711198       -2.3119254959
 C         4.6216873357       -3.8697121927       -1.2631452074
 H        -3.4198338753       -6.3395963132       -3.6334609317
 H        -3.3014720229       -5.0854531683       -4.8391296505
 H        -2.2967379830       -6.5295036363       -4.8551927878
 H        -2.2763694799       -7.5908507566       -1.1461943637
 H        -0.9358848914       -7.8324591567        0.0142905334
 H        -1.6086166733       -8.2711086147       -3.1143171880
 H         0.1322618111       -8.4615512071       -2.8940915493
 H        -0.5365096039       -7.8127803064       -4.3376485168
 H         1.8211774776       -6.0277153178       -2.6742926679
 H         0.9116505220       -6.1710283351       -4.3154075705
 H         1.0239227810       -4.5995405962       -3.2302835835
 H        -2.5262847436       -7.5289276928        1.3229131534
 H        -2.0643986742       -5.7939113981        1.2574671725
 H        -4.7910030465       -3.8685838357       -0.6349977117
 H        -6.1455464969       -3.2517535765        0.3535400310
 H        -6.7121494066       -6.8719610653        1.1027800655
 H        -6.4385503823       -5.4347765244        0.0965198940
 H        -6.8428873691       -5.2188182655        1.8484250051
 H        -5.2110095332       -6.2513544910        3.6631986143
 H        -4.5461987946       -7.4470621842        2.7980117695
 H        -3.5687663976       -6.0935097410        3.1936876363
 H        -4.6071433332       -1.4766758765        1.5762967150
 H        -5.0900893209       -1.1331648271       -0.1715632638
 H        -3.0765920683        1.5697993402       -0.8505462767
 H        -1.3947689069        2.3366851713       -0.5766602025
 H        -2.7623152940        1.4164070789        1.7237106832
 H        -3.5160037000       -0.0585474661        2.3318041348
 H        -4.0046764146        0.7281744237        0.8414685925
 H        -1.1678464370       -1.4693080555        2.4338510797
 H        -0.6368437791       -1.9558985137        0.8861399737
 H        -0.2566048706       -0.3396819183        1.6036456338
 H        -1.9326428297        1.2154072478       -3.2834515996
 H        -2.4020577787        2.8279286163       -2.8467384948
 H         1.0162223994        5.5257815730       -3.8394793708
 H         0.3197126977        6.2515206326       -5.2171860987
 H         1.7688311752        3.7392335030       -3.4560063610
 H         1.8666171925        3.6645730512       -5.2365494240
 H         1.9648221854        2.2380654767       -4.4288032840
 H        -0.3961836043        0.9448918774       -5.0188637946
 H        -1.6948143512        2.1389357979       -5.5602508294
 H        -0.1994168597        1.9929467663       -6.4290910245
 H        -1.4000296115        6.0349123118       -2.7955748157
 H        -1.3684416210        7.4005107046       -3.9902880642
 H         0.2420165067        5.4739864130        0.0313320606
 H         0.8538023988        7.0634540470        0.5920728006
 H         0.2168611599       10.0262437638       -1.7227318176
 H         0.9410585573        9.0210964330       -0.5610171766
 H        -0.6688348436       10.0479149645       -0.0575272885
 H        -2.9562018618        8.0466121865       -2.1997370675
 H        -2.7405372511        9.0387037656       -0.7556792395
 H        -2.1857303268        9.6211622552       -2.3255370351
 H         0.0748581923        6.7289241452        2.8345172055
 H        -1.4128138499        5.9982820872        2.2504428156
 H         1.9538355411        2.4675532145        3.1037021114
 H         2.0552382558        2.8662648755        4.7448365999
 H        -0.4416790653        4.7360755371        5.7022931245
 H         0.1215313184        5.9827847455        4.6360514572
 H         1.3179379526        4.8314819486        5.0838875835
 H        -2.3300851452        5.0340663393        3.7244819555
 H        -2.3526215791        3.3812204219        3.0488784613
 H        -2.3191103939        3.6221188719        4.7262721379
 H         0.9514385283        0.1556251971        3.8582738781
 H         1.0168295629        0.5866923846        5.4787762257
 H         5.5487618884       -0.9107419094        2.6094206901
 H         5.9040615317       -2.2405974862        3.4734058083
 H         5.4266339438       -0.8906294818        5.0401385904
 H         5.0660005388       -2.5554701290        5.4869784484
 H         4.8044625503       -1.4677336969        6.7045155690
 H         1.8181506806       -2.0182855027        6.2575090770
 H         1.3291021057       -2.0190597286        4.5521705622
 H         2.4463241808       -3.1546233593        5.1351895257
 H         5.9208492708       -3.5285770598        1.3962056771
 H         4.1111865684       -3.2025347371        1.4273292909
 H         2.2294499325       -0.0688800675       -1.8009342707
 H         2.1481054411       -0.4441061874       -0.1044426517
 H         3.5455069565        0.1588732083       -0.9200233164
 H         6.1882849136       -1.7434823638       -2.1314233932
 H         4.9060582924       -0.6124889011       -2.5105350187
 H         4.9265845492       -2.1203871868       -3.2103761769
 H         3.7435926805       -4.3537006530       -0.8263277658
 H         4.6979154376       -4.1584478516       -2.2737837930
 H         5.5975502510       -4.3095200300       -0.9182286398
 Na       -0.3301248589       -2.8129950163       -1.6241117907
