155

 C        -2.4367772575       -5.4234309277       -4.1280359403
 C        -1.3317070273       -5.0113421326       -3.2758044406
 C        -0.4028262104       -6.1563489524       -2.6710616900
 C        -0.5776821048       -6.2327158064       -1.1170392112
 C        -1.3880953945       -7.4639611750       -0.5337068224
 C        -0.6266391656       -7.5007982186       -3.3272605724
 C         1.0941443672       -5.6474835753       -2.9634013794
 O        -1.1734189425       -3.9080821197       -2.8294449084
 O        -0.2016258392       -5.3440376886       -0.3015739727
 C        -2.3909551285       -6.8931262054        0.5057927561
 C        -3.4249478154       -5.9734526173       -0.0796323829
 C        -4.6236537596       -5.7304168737        0.9176386652
 C        -4.5162954442       -4.1234735712        1.1406015262
 C        -5.0070331082       -3.1935645472        0.0049635645
 O        -3.3852621786       -5.3590195725       -1.1426441528
 O        -4.0685806426       -3.6972768599        2.1976172053
 C        -5.9421821527       -6.0499221296        0.1449657939
 C        -4.5493449214       -6.3269583981        2.3341774090
 C        -4.3125381660       -1.7744736718        0.1150352292
 C        -2.7804468368       -1.9350412616        0.1861486256
 C        -1.9936448495       -0.5550558072        0.1826808403
 C        -1.7508516319       -0.1170277137       -1.2655282611
 C        -2.0791817583        1.3979073991       -1.5564297689
 C        -2.8927954525        0.4681641907        0.9314861051
 C        -0.6845363275       -0.9272481651        0.7622678204
 O        -2.2099315842       -2.9288540743        0.0283252103
 O        -0.9973117418       -0.8128850146       -1.9637812878
 C        -1.6989524148        1.7515430380       -3.0462934014
 C        -0.3323341054        2.4674751727       -3.2866404542
 C         0.0059031227        3.1277396359       -4.6508461597
 C        -0.3518770023        4.6437864392       -4.5021133297
 C         0.4079731507        5.5565731215       -3.4987222738
 O         0.4993027091        2.5415451614       -2.3993521357
 O        -1.2233200580        5.0521494918       -5.2804451759
 C         1.5036827459        2.9360291413       -4.9448277376
 C        -0.7395133794        2.5075857239       -5.7992048045
 C        -0.4719572469        6.6241358678       -2.9627812422
 C        -0.0430474361        7.4687069768       -1.8242589065
 C        -1.1851680240        8.1755271075       -0.9018495690
 C        -1.7981177462        6.9847116902       -0.1244249619
 C        -0.8534488974        6.0620914564        0.6430273302
 C        -0.3664820542        9.3331383407       -0.2222357984
 C        -2.3391475580        8.8447543418       -1.7443294826
 O         1.1434540445        7.6199332601       -1.5371356715
 O        -2.8882009454        6.5657818318       -0.3609497221
 C        -1.5526036614        5.2578114998        1.7222911244
 C        -0.4984128108        4.2185874852        2.2345506617
 C        -0.5454169350        3.8230975874        3.7971970536
 C         0.0453361472        2.2878980874        3.6599423708
 C         1.5469652800        1.9416363606        3.5309987622
 O         0.2347428292        3.6681238670        1.3987673999
 O        -0.8810752499        1.4933382588        3.5069418599
 C         0.5051924748        4.6699142289        4.6030420028
 C        -1.9253211451        3.7285298163        4.4024645044
 C         1.8860313279        0.4818918082        3.9014965783
 C         3.2118539678        0.3430702952        4.6907515261
 C         3.5748946448       -1.1355285685        5.1809013246
 C         3.9580105385       -1.8973551487        3.8435140481
 C         5.2420839103       -1.5467064697        3.1645407611
 C         4.8541787243       -1.1114019449        6.1357807054
 C         2.2892122442       -1.5815155676        5.9402444149
 O         4.0133157715        1.1762353878        4.9439329399
 O         3.0281092013       -2.5925156105        3.4060076427
 C         5.3821927990       -2.0031709841        1.6884515373
 C         4.3110648987       -1.2876702765        0.8795944015
 C         4.1667155655       -1.7908801852       -0.7462143532
 C         2.5886101174       -1.6166500555       -1.2051245343
 C         2.1222269366       -0.2951192880       -1.8186486570
 O         3.6024565327       -0.3620742785        1.2722896809
 O         1.8263219017       -2.5311827884       -0.8837771166
 C         4.9780614124       -0.8496590197       -1.5540028593
 C         4.7038911897       -3.1932920282       -0.9007331081
 H        -3.1798725090       -5.9587072463       -3.5245612696
 H        -2.9687719102       -4.5338344919       -4.4278999478
 H        -2.2854301345       -6.0363186556       -4.9610294293
 H        -1.9595066130       -7.9564437800       -1.1868036019
 H        -0.7332981396       -8.1967506588       -0.1532223092
 H        -1.6652589761       -7.8485531645       -3.1978842631
 H         0.1510850570       -8.2510462489       -3.0342872584
 H        -0.5014932060       -7.4334682870       -4.3970378169
 H         1.7040116732       -6.4059369693       -2.3570335620
 H         1.2244919341       -5.7106150359       -4.0840039917
 H         1.3486809236       -4.5741186436       -2.8266553116
 H        -2.7052086426       -7.5347801744        1.2599363533
 H        -1.8229397800       -6.2198360480        1.1949959046
 H        -4.7644286604       -3.6621050658       -0.8837315770
 H        -6.1107157657       -3.1603229109        0.1087308049
 H        -5.8708310327       -7.1250518344        0.0597657693
 H        -5.8692999561       -5.5530295458       -0.7925500370
 H        -6.8916544220       -5.8926916487        0.7194960757
 H        -5.2655225268       -5.7779816552        2.9644753808
 H        -4.8825898731       -7.3368979458        2.2199745918
 H        -3.6302331475       -6.3583098610        2.8557716907
 H        -4.5615757364       -1.1802534770        0.9297175935
 H        -4.5989270747       -1.0451577201       -0.7295653046
 H        -3.1581472255        1.6731548009       -1.4239503618
 H        -1.3560597117        1.9230796308       -0.9351841589
 H        -2.2561693387        1.2782743218        1.1012659425
 H        -3.1406135959        0.2054461505        2.0013238614
 H        -3.7132962011        0.6979613416        0.3104071631
 H        -0.1363259216       -0.0166101642        0.9889455370
 H        -0.7308718652       -1.4579346015        1.7000281519
 H        -0.2236524428       -1.5795164369        0.0760683970
 H        -1.7340861773        0.8231989314       -3.6942678789
 H        -2.4065189385        2.4032024966       -3.4937328481
 H         0.7944772638        4.9832114455       -2.6159736308
 H         1.2271307942        5.8733212176       -4.1777877741
 H         2.1377934673        3.0025243184       -4.0863444793
 H         1.8991562726        3.5458730490       -5.7453530989
 H         1.5819537169        1.9061236541       -5.2259554788
 H        -0.4484961150        1.5114171763       -5.8317027205
 H        -1.8770906225        2.5774372508       -5.5689317964
 H        -0.5421644110        3.0874254698       -6.7358358496
 H        -1.3610309606        6.1473819858       -2.5396892422
 H        -0.9591851319        7.1492542447       -3.7814824986
 H        -0.4325908739        5.3739618197       -0.0703094116
 H         0.0610987505        6.6088178051        0.9937381969
 H         0.0748439053        9.9078195374       -1.1013406560
 H         0.2798731749        8.8527469999        0.5104477679
 H        -1.0906726678       10.0032706435        0.3675284254
 H        -2.5791368167        8.2709376306       -2.7048171395
 H        -3.2579819531        8.8266824306       -1.1876308652
 H        -2.3038045451        9.8531023438       -1.9833974449
 H        -1.7707637557        5.9392927581        2.5615991159
 H        -2.4404246695        4.7059832351        1.3886067969
 H         1.7449663359        2.0887350112        2.4386304411
 H         2.1102066214        2.6557869090        4.1017064259
 H         1.1611544912        4.0584020305        5.2552422586
 H        -0.0843370418        5.1700294018        5.3184525361
 H         1.2453977184        5.4244018698        4.1394361627
 H        -2.3509362125        4.7228218887        4.4871956070
 H        -2.5042875141        3.1754158506        3.7603353695
 H        -1.8605136067        3.3304654478        5.3887266687
 H         2.0005358525       -0.1731233973        3.0104679301
 H         1.0017691448       -0.0090048893        4.4976982422
 H         5.3430548647       -0.4729733997        3.2417741692
 H         5.9478817505       -2.0312022685        3.8107851852
 H         5.8364284126       -0.7795236823        5.7329416763
 H         5.0406316771       -2.1299443415        6.5185129513
 H         4.6840679982       -0.5391661262        7.0660516675
 H         1.9640365759       -0.8758620967        6.7466639833
 H         1.3294375934       -1.7185917916        5.3893844898
 H         2.5046498513       -2.5022965317        6.4852978466
 H         6.3296522702       -1.5669661127        1.3385757308
 H         5.3065998386       -3.1120158079        1.5427779284
 H         2.4370987533       -0.2374792625       -2.8615014448
 H         1.0725915211       -0.1974431815       -1.9319016779
 H         2.4506671801        0.6138308819       -1.3398915950
 H         5.9943254327       -0.9472710979       -1.6524296666
 H         4.8410337128        0.1962248455       -1.2499497877
 H         4.6415976914       -0.8729477539       -2.5503262250
 H         4.3260342110       -3.9738184207       -0.2412490960
 H         4.5118221655       -3.6832927293       -1.8390925165
 H         5.8153879923       -3.2688980545       -0.7027348704
 Na       -0.3501075786       -3.0041053213       -1.0023707003
