155

 C        -4.4521977321        1.0310240351        2.3427096395
 C        -5.1955220243       -0.2396947373        1.8919267904
 C        -5.9122681026       -1.1619869997        3.0748070002
 C        -7.2767136026       -1.4977067200        2.3384819158
 C        -8.4964658043       -0.9921719876        3.0544297228
 C        -5.1502722983       -2.5625859254        3.0170210640
 C        -5.9324643826       -0.4611090041        4.3891010432
 O        -5.2732382127       -0.5925174419        0.7547381403
 O        -7.2634767891       -2.3182199432        1.4264982007
 C        -9.7468608546       -1.0816604078        2.0590058439
 C        -9.6931329700        0.1248587793        1.0420888482
 C        -9.5290727292       -0.1178524380       -0.5445058146
 C        -8.1238049143        0.2423325577       -1.1182735226
 C        -7.7129427883        0.0099669564       -2.5626575143
 O       -10.1380942767        1.1415728634        1.5131141866
 O        -7.2980838330        0.7456855080       -0.3903913780
 C       -10.1922367367       -1.4474420155       -0.8957946973
 C       -10.2950964053        1.0441642750       -1.1867283010
 C        -7.8633446108        1.1796239215       -3.6808782097
 C        -6.6143545007        2.0610229815       -3.7188021548
 C        -6.5760456975        3.5859915970       -4.1151733691
 C        -5.5190142469        3.5938732798       -5.2495003514
 C        -3.9415505216        3.4814779786       -4.8176254303
 C        -7.9892197233        4.1264996405       -4.7659802578
 C        -6.2280350908        4.4784886763       -2.9260269076
 O        -5.5350996297        1.6212104180       -3.3157800446
 O        -5.7477817134        3.9635493614       -6.4253285813
 C        -3.2537637687        2.1935553657       -5.5554907815
 C        -4.1756129679        0.8643888111       -5.7779955567
 C        -3.4637434570       -0.4391794288       -5.5208148285
 C        -3.0148362885       -0.6102707533       -4.0668240825
 C        -1.6011027281       -0.8213741012       -3.5334077631
 O        -5.2976420963        0.8488159370       -6.0932410448
 O        -3.8552043396       -0.6975656880       -3.1930129109
 C        -4.2867773474       -1.7489159811       -5.5945999580
 C        -2.2440930881       -0.5468033456       -6.6324542047
 C        -1.2523900889       -0.3329795244       -2.0341368735
 C        -1.6715978231        0.9136543004       -1.3961545832
 C        -0.6415841724        2.0595335943       -1.0680210267
 C         0.4657553300        1.3527978439       -0.0347990253
 C         1.4927379158        2.4539527343        0.3386761327
 C        -0.0025012332        2.3685920056       -2.4482911474
 C        -1.4453615165        3.2682333154       -0.4005004150
 O        -2.9022386889        1.0674591889       -1.2185740157
 O         0.4931271494        0.2357513747        0.3447330607
 C         2.8286397485        1.9702038843        0.7335255671
 C         3.5795549263        0.9134292712       -0.0728744978
 C         4.9107906460        0.3309431879        0.6726642276
 C         5.0681734491        0.9219926912        2.0471371876
 C         4.9246480533       -0.0192545445        3.3090687675
 O         3.0990716547        0.2982083229       -1.0262493653
 O         5.3494159551        2.0570138713        2.2044370717
 C         4.8549367806       -1.3114912777        0.7205180298
 C         6.1095439348        0.7271403117       -0.2742163222
 C         5.7999160093        0.4123499023        4.4109351594
 C         6.9574576537       -0.6298342649        4.6775484887
 C         8.3141481074       -0.2572298666        5.3639622030
 C         9.6435887206       -0.3089866382        4.3372680105
 C        10.0035716394       -1.7120262699        3.9272246690
 C         8.1413065180        1.2767470388        5.8056929131
 C         8.7198001474       -1.2864249957        6.3629871141
 O         6.5239252039       -1.7641785013        4.4881761769
 O        10.2620933633        0.7238676647        4.1005834599
 C        10.3865024050       -1.9945718356        2.3564339634
 C        11.6835980969       -2.7371289680        2.3288778393
 C        11.8480056022       -3.8056354608        1.1045611075
 C        10.9957959606       -5.0431832394        1.6043123763
 C        11.3771098213       -5.5544078847        3.0302597452
 O        12.5908986212       -2.6285020756        3.1787281320
 O         9.9979730957       -5.3195067212        0.9706076915
 C        11.0520086746       -3.3744532060       -0.3182002729
 C        13.3207117779       -4.3606002205        0.7440726900
 H        -5.2437569784        1.7256311983        2.6322710284
 H        -3.9442912035        0.9143870457        3.2128769154
 H        -3.8435919388        1.5380754130        1.6462616185
 H        -8.6008662618       -1.7693309872        3.8399448287
 H        -8.3205841447        0.0688373761        3.3768041349
 H        -4.6355413832       -2.6022870385        2.1419487612
 H        -5.7805212023       -3.3855388679        3.2644021135
 H        -4.3899566055       -2.6570748727        3.7073951757
 H        -6.6105782053        0.3804216333        4.3346171666
 H        -6.2830049212       -1.2085780194        5.1142302645
 H        -4.8416341002       -0.4058553765        4.6615311195
 H        -9.8014691528       -2.0624085037        1.4958504416
 H       -10.7012718083       -0.9536318956        2.6844153066
 H        -6.7088054077       -0.2351633426       -2.5084882670
 H        -8.1263378435       -0.9550457417       -2.8622719852
 H        -9.6415908171       -2.3704072386       -0.9625912683
 H       -10.8354879605       -1.2740257812       -1.7810942937
 H       -11.0373917031       -1.7047561468       -0.1395767489
 H       -11.2433433225        1.1230276477       -0.7735417712
 H        -9.7649855764        1.9659945636       -1.1164402055
 H       -10.3594106875        0.9379788170       -2.2476841981
 H        -8.7596160180        1.7949179955       -3.6012888464
 H        -8.0020516928        0.5823012759       -4.5951935964
 H        -3.4717641745        4.3698706984       -5.0958774695
 H        -3.9741027130        3.2443336908       -3.7024519932
 H        -7.8959084370        3.9464834345       -5.8461798098
 H        -8.2329045005        5.1926378500       -4.5113669511
 H        -8.8163642802        3.4479003043       -4.2396361024
 H        -5.4278862184        5.1955447092       -2.9695168666
 H        -7.1736717043        5.0611559506       -2.6596656945
 H        -5.8959548147        3.8676069318       -2.0592234915
 H        -2.7839300645        2.6005466651       -6.4048903052
 H        -2.5251759131        1.7278699600       -4.9533685758
 H        -1.3236564770       -1.9367109633       -3.5601040554
 H        -0.8553517412       -0.3961410468       -4.2812087043
 H        -4.9848634733       -1.6246704350       -6.3667090219
 H        -4.7800015083       -2.0308385597       -4.6330490591
 H        -3.4806668636       -2.4952676889       -5.9004010324
 H        -2.5552312346       -0.7104330821       -7.6628565898
 H        -1.5991422226        0.2489343976       -6.9334213813
 H        -1.9001635192       -1.4697293137       -6.3736999121
 H        -0.2533688045       -0.4985362977       -1.8933558959
 H        -1.8060816327       -1.0409488518       -1.4423616938
 H         1.5691695135        3.0369440166       -0.6075525442
 H         1.2172447984        3.1066645065        1.2429382395
 H        -0.5999480659        2.2176608304       -3.3604822316
 H         0.7839336566        1.6784941492       -2.5134680863
 H         0.2527955543        3.4749370722       -2.3854613778
 H        -1.4498979292        3.2489977181        0.6755180382
 H        -1.0207917135        4.2115836731       -0.8017706301
 H        -2.4527993119        3.2098638089       -0.6553215298
 H         3.3591521993        2.9520508690        0.7833259645
 H         2.8022696943        1.6865278857        1.8273808568
 H         3.8950156591       -0.0938900556        3.6604873875
 H         5.1791832209       -1.0360724016        3.0756499738
 H         4.9236361339       -1.7096944787       -0.1524561465
 H         3.9743524029       -1.6934953767        1.1653899394
 H         5.5195778558       -1.9370573701        1.3418803260
 H         6.6435766562       -0.0908302309       -0.6973550051
 H         5.7362660076        1.2141087714       -1.0962593537
 H         6.8155875795        1.2384488974        0.3150482650
 H         5.3419295267        0.5252655017        5.3758954395
 H         6.2315689606        1.4240221707        4.0799563639
 H        10.7879070504       -1.9939414390        4.5183032221
 H         9.2080025892       -2.3487095009        4.1836303053
 H         7.2733000462        1.4924342123        6.3910298452
 H         8.0230248399        1.9680807495        4.8623310770
 H         9.1071978197        1.3595903624        6.3602795383
 H         9.6415192290       -1.7229309090        6.2829185408
 H         8.4917698332       -0.9414505326        7.3917701583
 H         7.9688211670       -2.2097583340        6.1929561208
 H         9.4890417624       -2.4763383430        1.9005762972
 H        10.5122847024       -0.9460855557        2.0389979897
 H        10.5591644789       -6.1249349223        3.3684577418
 H        12.1037661124       -6.3236815010        2.8202841503
 H        11.8067767686       -4.7932146435        3.6203124728
 H        11.5622392008       -2.6544347432       -0.8126157571
 H        10.0694741658       -2.8762479608       -0.1038901945
 H        10.8716967906       -4.1535753310       -1.0163514323
 H        14.0956406730       -4.0821866596        1.4302422699
 H        13.3207223939       -5.4003733899        0.9661534125
 H        13.7363320998       -4.2165039503       -0.2311392855
 Na       -4.9226660975        0.3965242295       -1.4024775172
