155

 C        -4.3545578933        1.0318451154        2.2240324341
 C        -5.1797671551       -0.2150397403        1.9070667887
 C        -5.9060919386       -1.1383596261        3.0291599003
 C        -7.3935748365       -1.4461821788        2.3804990066
 C        -8.6533595125       -0.8186038404        3.0828304662
 C        -5.0796605803       -2.4964569027        2.9742133612
 C        -5.8548226111       -0.5199600508        4.4801204045
 O        -5.4074925399       -0.5256367676        0.7371959116
 O        -7.5484048996       -2.0618576217        1.3743159823
 C        -9.8068045103       -0.8506875894        2.1136280810
 C        -9.7935362870        0.2399952762        1.0767649850
 C        -9.6893902547        0.0571076825       -0.5264586625
 C        -8.2925110221        0.0954438029       -1.0762580258
 C        -7.9804006069       -0.1674645063       -2.5586418115
 O        -9.8278116628        1.4158677180        1.3599866785
 O        -7.3227286227        0.4614610038       -0.4678255487
 C       -10.2707240615       -1.4284687364       -0.9631112030
 C       -10.5913835338        1.1686547456       -1.2539125017
 C        -7.7796176823        1.1585766171       -3.2064006356
 C        -6.4523434612        2.0162865142       -3.3681204857
 C        -6.4260255926        3.4491261065       -4.1847326888
 C        -5.3073282663        3.4940730906       -5.3215070900
 C        -3.8743508109        3.1015243635       -4.7864642636
 C        -7.7985497416        3.7563575138       -4.8727332607
 C        -6.1845901242        4.5321561790       -3.0208020098
 O        -5.4366753361        1.8128086266       -2.7540548583
 O        -5.5720538004        3.9809311298       -6.3508385846
 C        -3.2340318370        1.8729482120       -5.2754011884
 C        -4.1527207432        0.6862156135       -5.3929812992
 C        -3.3908540582       -0.7413814281       -5.4476713400
 C        -2.9906663233       -0.8412763839       -3.8114510310
 C        -1.5570761460       -0.4888528367       -3.3539469484
 O        -5.3948164648        0.7178648564       -5.6292726784
 O        -3.8863226152       -0.5002412543       -3.0525404548
 C        -4.3255853129       -1.9553011039       -5.7816208508
 C        -2.2481863557       -0.8041850478       -6.3030611886
 C        -1.3804388160       -0.3831377088       -1.8734551832
 C        -1.6535017217        1.0247897223       -1.3374089134
 C        -0.6236336659        2.2103732042       -1.1215704525
 C         0.3993942311        1.6730986583       -0.2023092116
 C         1.6555377763        2.5610068531       -0.1506698022
 C         0.0078641087        2.6005150992       -2.6002796494
 C        -1.3308567396        3.2909895254       -0.3271827979
 O        -2.8232833793        1.1819443394       -1.0585127259
 O         0.1852751751        0.7287457219        0.5013460607
 C         2.8805971841        1.9619315623        0.5408599747
 C         3.5023474559        0.7151539221       -0.1413906912
 C         4.8263398054        0.1535556472        0.5386504855
 C         4.9558333903        0.7158702536        2.0664231603
 C         4.7078057002       -0.2156150644        3.3342659516
 O         3.0882614099        0.3655624477       -1.2379012345
 O         5.3230299436        1.9141190062        2.1456816752
 C         4.8321109230       -1.3802028468        0.3608966973
 C         5.8881403201        0.9646447842       -0.4744649204
 C         5.7743887675        0.2403429282        4.5270487945
 C         6.9256309225       -0.7523129790        4.6170501453
 C         8.3996578338       -0.2505937119        5.2013368529
 C         9.6424915458       -0.4466713468        4.2526071103
 C        10.2886223136       -1.7621135785        3.7236482700
 C         8.5205037893        1.1813616811        5.7488543355
 C         8.5419964430       -1.1482171162        6.5240202603
 O         6.8924907930       -1.9302590239        4.3629540655
 O        10.0861186387        0.5818844980        3.7701114626
 C        10.7739901276       -1.7217622409        2.2685040006
 C        11.9131189496       -2.7969020390        2.0686853524
 C        11.6736788366       -3.8479909286        0.9945239721
 C        10.7756531238       -5.0829921258        1.6097281694
 C        11.3683283329       -5.8724852728        2.8176362605
 O        12.9092466438       -2.6585719011        2.7349744783
 O         9.7427370118       -5.4333689060        1.0125199837
 C        11.1103492784       -3.1591054415       -0.3288852371
 C        13.1372783365       -4.3269002720        0.7203501528
 H        -4.9378805820        1.9348036873        2.5309260355
 H        -3.6009825329        0.8582151375        3.0890236486
 H        -3.7154909838        1.3806386699        1.3590577246
 H        -8.9485795374       -1.4490635524        3.9209454977
 H        -8.4087588574        0.1945289327        3.3581482077
 H        -4.6031373493       -2.8397261165        1.9760684483
 H        -5.5966454711       -3.3491253346        3.4422620842
 H        -4.2009177869       -2.3675428497        3.6907555000
 H        -6.4638992345        0.4280165501        4.4785521333
 H        -6.1536505441       -1.2544508423        5.2347004870
 H        -4.8195949518       -0.3808925651        4.6316475482
 H        -9.9044996749       -1.7774166977        1.6526122795
 H       -10.6509513697       -0.6616090367        2.7205174439
 H        -7.0452399676       -0.7868407074       -2.5294801305
 H        -8.6777881235       -0.8391188566       -3.0634958285
 H       -10.3140861880       -2.1646066819       -0.1040579072
 H        -9.7822395267       -1.8875848590       -1.8677204201
 H       -11.2600677286       -1.4107263417       -1.2937010420
 H       -11.6985651398        1.0125527735       -1.0359033574
 H       -10.2705947113        2.1510351745       -0.8428530091
 H       -10.4063105035        1.3653442960       -2.3167433603
 H        -8.3864261848        1.8645317770       -2.5939290962
 H        -8.3112897506        1.0585364650       -4.1458813058
 H        -3.0364938655        3.8784658998       -4.9422141971
 H        -3.9451756257        3.0751960913       -3.7050791579
 H        -7.9669857831        2.9732804674       -5.5968511349
 H        -7.8275596087        4.7152682586       -5.3583078520
 H        -8.4613567076        3.7131429797       -4.0984185086
 H        -5.9606706326        5.5880752328       -3.3531260106
 H        -6.8238568900        4.5483165599       -2.1566594621
 H        -5.1855307926        4.1898145354       -2.6569692961
 H        -2.9513389178        2.2220895377       -6.3344108535
 H        -2.2536915371        1.6334347547       -4.7501391901
 H        -0.8459962417       -1.1258026694       -3.7930555474
 H        -1.4115748758        0.4123208495       -3.9013653856
 H        -4.9240924056       -1.8384716633       -6.7338097864
 H        -4.9522959188       -1.9890165203       -4.9119130832
 H        -3.7241286722       -2.8068078532       -5.6581741149
 H        -2.3790475737       -0.6305091941       -7.3914642234
 H        -1.5991117927        0.1173267847       -6.1700978648
 H        -1.7256406350       -1.8396118573       -6.2761715249
 H        -0.2972980626       -0.6337579710       -1.5616878254
 H        -2.0754631083       -1.1508675566       -1.4743460547
 H         1.7966672195        2.7692659759       -1.2128066648
 H         1.3017928366        3.4260973514        0.3635242666
 H        -0.7863283183        2.7648801097       -3.3309378194
 H         0.7144746546        1.9226208536       -3.1048639465
 H         0.3801552881        3.5690597663       -2.4158784519
 H        -0.9677227119        3.2127100641        0.7276013646
 H        -0.9754224901        4.3076626550       -0.6112064978
 H        -2.4642091311        3.2923762185       -0.2453479793
 H         3.6977392601        2.6665929631        0.5735701901
 H         2.5722507062        1.8339995475        1.5828784059
 H         3.6501522004       -0.1250474997        3.6636870645
 H         4.7664629499       -1.3149772487        3.0965686241
 H         4.6786652312       -1.8522381554       -0.6872003263
 H         4.0575218237       -1.8955543643        0.9748927382
 H         5.6587850093       -1.9070635799        0.8167626470
 H         6.0537531114        0.2853055840       -1.3543616699
 H         5.2885172328        1.8112614290       -0.9527132544
 H         6.8901774751        1.2883418254        0.0141395648
 H         5.3078077825        0.1564633638        5.5419519409
 H         6.1097353777        1.2251387611        4.5242755706
 H        11.3146202078       -1.8786672258        4.3716415694
 H         9.7901951346       -2.7718687310        3.7639585462
 H         7.6105500271        1.3840687856        6.4548449301
 H         8.3425136042        1.7833975647        4.8972257893
 H         9.4996711348        1.3694568241        6.1273827761
 H         9.3945053012       -1.8409418919        6.2595734557
 H         8.8831632970       -0.5322131320        7.3461345604
 H         7.7401521620       -1.6861871677        6.8739257220
 H         9.8161605199       -1.8184644415        1.6754996088
 H        11.1261708094       -0.7227187864        2.1749709186
 H        10.7165213949       -6.7015483133        3.1587962963
 H        12.4049029797       -6.3007498896        2.6129144733
 H        11.5561277453       -4.9571876761        3.4680037526
 H        11.2939316825       -2.0355103154       -0.4021835444
 H        10.0749709083       -3.3076887925       -0.4441682593
 H        11.5881312685       -3.6225534242       -1.2213796898
 H        13.8760637532       -3.7605441584        1.3021852605
 H        13.5013798559       -5.3524297132        0.9990996337
 H        13.4157237323       -4.2887549429       -0.3569772025
 Na       -5.0363126304        0.6904197769       -1.0200673941
