155

 C        -4.5958036067        1.3756003623        3.0265074121
 C        -5.3100326167        0.1704331321        2.4451823079
 C        -6.1442812789       -0.8772370823        3.3588307172
 C        -7.6368524869       -0.6961975921        2.9676507201
 C        -8.1502871820        0.7761585469        2.9200401584
 C        -5.6012339744       -2.2636530115        3.1050203300
 C        -5.9759503616       -0.4614662665        4.8908049288
 O        -5.5831764677       -0.0052769829        1.2691065739
 O        -8.3885384945       -1.6607389565        2.8777052685
 C        -9.6995510245        0.9867012295        2.5833319563
 C        -9.7831384763        1.8889426616        1.2359867825
 C        -9.7733602183        1.0562775381       -0.2208901726
 C        -8.2770743265        1.0066824926       -0.5673273720
 C        -8.0968141923        0.5329139200       -2.0429167946
 O       -10.0090033232        3.0334666998        1.3149722313
 O        -7.2902266140        1.4884690461        0.0114217443
 C       -10.2900691573       -0.4632610353       -0.0494943076
 C       -10.7312758650        1.7804861725       -1.2062252342
 C        -7.9806468741        1.6403620572       -3.1338456788
 C        -6.6788933200        2.4725148779       -3.0445513380
 C        -6.0956944704        3.0329720140       -4.4764902049
 C        -5.4505381229        1.6609106042       -5.1473445984
 C        -3.7942768456        1.8265777108       -5.3545465229
 C        -7.3892917103        3.4828024378       -5.2720848633
 C        -5.2216904996        4.2549927433       -4.0631916583
 O        -6.0188952855        2.6143607513       -2.0559410563
 O        -6.1495078909        0.7443938319       -5.4538077191
 C        -3.1721714314        0.4908132528       -5.1920504038
 C        -3.5650794764       -0.0933926713       -3.7656652102
 C        -3.0786718207       -1.4909624576       -3.1061577837
 C        -2.5486137742       -1.1027633490       -1.5843715966
 C        -1.0815750802       -0.5460251398       -1.4593718203
 O        -4.4366469517        0.5693956925       -3.2219906213
 O        -3.2582215083       -1.2959390294       -0.6069412548
 C        -4.3314688935       -2.3604679844       -2.9083874225
 C        -1.8911888115       -2.2379158545       -3.8520532794
 C        -1.1063177787        0.5211038978       -0.3543560540
 C        -1.6324065272        1.9367435408       -0.6860039680
 C        -0.5284057846        2.9889900602       -1.0614084539
 C         0.5071769108        3.1072329715        0.1876948510
 C         2.1391635053        2.8009209814       -0.0149174110
 C         0.2803710727        2.6717550680       -2.3690473515
 C        -1.0774035670        4.4395724055       -1.2674065458
 O        -2.7895124514        2.3904055911       -0.5317164487
 O         0.1230442783        3.5513782860        1.2494160949
 C         2.5419063659        1.4495788006        0.7391225209
 C         2.6376418377        0.2362061696       -0.2393925604
 C         3.9062610753       -0.7313612259       -0.2533277992
 C         4.7544869122       -0.5661486866        1.0030340810
 C         6.2560873975       -0.6268150329        0.9655784685
 O         1.8897859370        0.1775240648       -1.1797862932
 O         4.0595549136       -0.3173190858        2.0257755866
 C         3.3134041863       -2.1668673616       -0.4804357594
 C         4.7695588173       -0.2718148619       -1.4694463775
 C         6.7877184704       -0.5728420226        2.4586487262
 C         8.0329952596       -1.3557555828        2.7416739607
 C         9.0113222397       -1.0263983977        3.8108335326
 C        10.2033865517       -0.1625357616        3.0756126430
 C        11.2509065031       -0.7118482956        2.0586714061
 C         8.4164144107       -0.0328792745        4.8827142549
 C         9.5635592934       -2.2888532609        4.4670995505
 O         7.9965390228       -2.4071374043        2.0438293022
 O        10.2721533358        1.0060015875        3.2719468731
 C        10.8099872547       -1.9000423084        1.1742496032
 C        11.8149966422       -3.0027157721        1.0681354008
 C        11.5491841284       -4.1911458480        0.0177360231
 C        10.0109391045       -4.5829407684        0.0223912960
 C         9.5401156986       -5.6020598236        1.2183874876
 O        12.8218653624       -3.0222288561        1.7768022845
 O         9.3794622055       -4.2873921107       -0.9017186182
 C        11.9010018667       -3.5892983285       -1.4144378073
 C        12.4499628732       -5.4857696145        0.3951755933
 H        -4.8697327793        2.2799402401        2.4976097045
 H        -4.8132627345        1.6052765180        4.1360112182
 H        -3.4626296462        1.4590836390        2.8608746717
 H        -8.1884417290        0.9410360351        3.9992227714
 H        -7.4969808714        1.4493885601        2.4663281204
 H        -5.9186452744       -2.6343905182        2.1104871798
 H        -6.0251978400       -2.9447063687        3.8062661016
 H        -4.5160140189       -2.1737767728        3.1685456326
 H        -5.8846303716        0.5290156126        5.2211331792
 H        -6.8176320775       -0.7975120151        5.4802691616
 H        -4.9952978629       -0.8379827899        5.2916272439
 H       -10.0735993968       -0.0181524000        2.1757112581
 H       -10.1968509005        1.3351010465        3.4921990261
 H        -7.0507684764        0.1244961269       -2.0781209992
 H        -8.8961305064       -0.2556320363       -2.1938339939
 H       -10.9583388832       -0.4581146100        0.8260056235
 H        -9.4424488667       -1.2238877599       -0.0018988374
 H       -10.8727690324       -0.6798317024       -0.8857955507
 H       -11.7013496023        1.6901853609       -0.8372147817
 H       -10.4359288925        2.7821565245       -1.3676630240
 H       -10.6856484388        1.2539473352       -2.1524329246
 H        -8.8950845793        2.2750834075       -3.1419250638
 H        -7.9630839542        1.2451662090       -4.1413842511
 H        -3.7109305139        2.0504322800       -6.3431565377
 H        -3.4344819516        2.3960931209       -4.5938987088
 H        -7.8733916077        2.6627548666       -5.6272143523
 H        -7.2279204440        4.0959625468       -6.1117552944
 H        -8.0994225539        3.9649780566       -4.6668483537
 H        -5.9591135865        4.9973363207       -3.8158277831
 H        -4.5400371888        3.8750489494       -3.2698003734
 H        -4.5466498672        4.5191979919       -4.8992016278
 H        -3.2864661597       -0.4505253457       -5.8654227086
 H        -2.0605873255        0.7360568335       -5.0241789569
 H        -0.4642388923       -1.4554204505       -1.2532919328
 H        -0.8478470235       -0.1438193643       -2.4424849136
 H        -4.5429351936       -2.5368008687       -3.9877642380
 H        -5.0475175649       -1.7137716140       -2.4607656284
 H        -4.1125712382       -3.1661029310       -2.2056186357
 H        -2.4137416154       -2.9209893662       -4.6430893490
 H        -1.2000482174       -1.5563519958       -4.5010350711
 H        -1.3479794791       -2.8627048815       -3.0948073948
 H        -0.1533553118        0.6781751339        0.2258287459
 H        -1.7549993030        0.0607603312        0.4198780528
 H         2.4182108387        2.6408525585       -1.0075959678
 H         2.5148816643        3.6272288925        0.5120034499
 H        -0.4028539816        2.5062950384       -3.1336850572
 H         0.9858910261        1.7820560387       -2.3231028724
 H         0.8342401432        3.5003966178       -2.6955370027
 H        -0.3874667316        5.2853817869       -0.9602183305
 H        -1.4847445611        4.6830926689       -2.1968374170
 H        -1.9858558237        4.5116057080       -0.6126668852
 H         3.5299933905        1.6087792699        1.1782765558
 H         1.8601674629        1.1910495082        1.5866480093
 H         6.7086931584       -1.5838195023        0.6808347184
 H         6.7522581426        0.1863640353        0.5040137711
 H         2.6690446467       -2.1376507827       -1.3138188794
 H         2.6026503399       -2.4234923879        0.2313938573
 H         4.0725495887       -2.9982656794       -0.5446283968
 H         4.6426451510        0.8540707238       -1.3763527950
 H         5.8757904963       -0.6344862220       -1.4882043805
 H         4.2926377146       -0.8100145611       -2.2772177930
 H         5.9631123345       -1.0931878436        2.9808539108
 H         6.8529563639        0.4982641126        2.8512403038
 H        11.4813762599        0.0590164503        1.3886558085
 H        12.0565538497       -1.0031426356        2.6200337689
 H         7.3252966670       -0.0742552344        4.9545262154
 H         8.8604632880        0.8924929535        4.7894210718
 H         8.7364366806       -0.4242942867        5.7919732771
 H         9.5177831561       -3.3580281750        3.9790353703
 H        10.6200786266       -2.1197895106        4.7725023168
 H         8.8881298498       -2.4006259408        5.2882768446
 H        10.0591170706       -2.4426420946        1.6214578547
 H        10.3247060709       -1.7079758738        0.1291047762
 H         9.5994861481       -4.9450020391        2.1102554525
 H         8.4876266527       -5.7063623568        1.0955866553
 H        10.1995345039       -6.5124123223        1.3567540162
 H        12.0503238637       -4.5513250378       -2.0311065821
 H        12.8401034800       -3.0921015621       -1.4204970947
 H        11.0928551928       -3.0409476087       -1.7840473921
 H        12.5089435550       -5.7299087315        1.4977778771
 H        11.9508265536       -6.3109344193       -0.0357430811
 H        13.3675258841       -5.2085093529       -0.0533825434
 Na       -4.9446009161        0.4161027986       -0.6450164848
