155

 C        -3.8678568262        0.5352819048        3.1514124526
 C        -5.3272305861        0.3277247841        2.8762753331
 C        -6.2118269822       -0.1599457586        4.0768266422
 C        -7.7193831212        0.0768428159        3.4138873032
 C        -8.2595340245        1.5801957056        3.3390270124
 C        -6.0385920819       -1.7373463776        4.5171684563
 C        -5.8931779813        0.7872477653        5.2025009437
 O        -5.7570668172        0.8097325886        1.8579388917
 O        -8.4535080638       -0.8799941056        3.1718885192
 C        -9.7064756585        1.6790308996        3.0360532103
 C       -10.0889740962        2.3139540319        1.6633327389
 C        -9.9020964851        1.5470077111        0.2185875687
 C        -8.4450114807        1.8826381822       -0.2378227615
 C        -7.9316469236        1.0391367113       -1.4595123592
 O       -10.7446625566        3.2888551555        1.6978846296
 O        -7.5840620210        2.4834317314        0.3803584357
 C       -10.2773097247        0.0279499770        0.2553299730
 C       -10.8453866035        2.3472166372       -0.7036760561
 C        -7.9742928141        1.8179373343       -2.7345490511
 C        -6.4502928421        2.2687490999       -3.1829944219
 C        -5.7786492617        2.1253391229       -4.6836435527
 C        -5.7353903953        0.7170732648       -5.2346359902
 C        -4.4624984404        0.2840621737       -5.9947553194
 C        -6.7620629941        2.8742494278       -5.5969971431
 C        -4.3444743990        2.9148142690       -4.6057427173
 O        -5.7221901014        2.7590847673       -2.3793254924
 O        -6.5745111247       -0.0906492100       -5.0634546660
 C        -4.0347736168       -1.0206125343       -5.2591916756
 C        -3.4749568668       -0.6456091805       -3.8236325448
 C        -2.8347692893       -1.8834098676       -2.7758876404
 C        -2.7226140993       -1.0729842583       -1.4609058645
 C        -1.5835626842       -0.0978862484       -1.2857380677
 O        -3.4628058558        0.5023265615       -3.4691837574
 O        -3.3523751999       -1.3048961148       -0.4663405473
 C        -4.0834603308       -3.0137612756       -2.4948163991
 C        -1.5802764703       -2.5199434627       -3.3132436306
 C        -1.6903853376        0.5375546328        0.0569030663
 C        -1.8609141687        2.0156011034        0.0027454188
 C        -0.7038506167        2.9900592517       -0.2667545577
 C         0.6372537496        2.5425260633        0.2898193810
 C         2.0018075198        3.0074418059       -0.4201160822
 C        -0.6789450921        3.1872630277       -1.8912806072
 C        -0.9453411008        4.3818974754        0.5864752798
 O        -3.0245171869        2.4509815404       -0.0772547762
 O         0.6219024677        2.0465495841        1.4407205348
 C         3.1183405035        1.9685482342       -0.3780568010
 C         2.7440211689        0.4118264675       -0.6667709302
 C         3.8685928277       -0.7628907617       -0.3331023363
 C         4.7107080044       -0.3973231038        0.9367756951
 C         6.3656060504       -0.2078529113        0.8440261598
 O         1.7605671547        0.1901695187       -1.3085304547
 O         4.1459831194       -0.2992363024        2.0124062564
 C         3.0841936109       -2.1231508983        0.0400022009
 C         4.6347374592       -0.9782406303       -1.6877221589
 C         6.8915759440       -0.2231232322        2.2872893693
 C         7.7374329153       -1.4335684538        2.6134752025
 C         9.2214798903       -1.2716260328        3.2168425604
 C        10.0949743391       -0.5584972750        2.1604462252
 C        11.5063258107       -1.2825206947        1.7695249364
 C         9.3075898200       -0.3954775307        4.5476631741
 C         9.6625240857       -2.6811964113        3.6287460992
 O         7.4631198721       -2.6152566466        2.4210413449
 O         9.8206203309        0.5257953567        1.7484913626
 C        11.3483622109       -2.1106296392        0.4034300273
 C        11.9477977621       -3.5661319041        0.5120928583
 C        11.8474426828       -4.3729830814       -0.8139400217
 C        10.3811390565       -4.2036475214       -1.2941824135
 C         9.3968782176       -4.8620887912       -0.2792532565
 O        12.2719194521       -4.1766951570        1.5368028746
 O        10.0109151768       -3.5819402165       -2.2218897793
 C        12.7835866152       -3.8908405746       -1.9020703687
 C        12.2071015981       -5.7574824434       -0.4220157928
 H        -3.3366270738        0.0795717213        2.3166216501
 H        -3.6451713369        1.6576684207        2.8884696215
 H        -3.3563428379        0.4066572256        4.1679325287
 H        -8.0345580422        2.1861708580        4.1542749439
 H        -7.7433326297        2.1498912764        2.5620116132
 H        -6.2812737023       -2.4166184504        3.7054033480
 H        -6.7069185309       -1.7468609977        5.2972465290
 H        -5.1288975867       -1.8905125095        5.0105186980
 H        -4.8493563073        0.6544056311        5.4767962022
 H        -6.3207288447        1.7683644447        5.0080871563
 H        -6.3589471403        0.3494177515        6.1153713119
 H       -10.3631865173        0.7551066069        3.3217960150
 H       -10.1110347607        2.3573907571        3.8276638547
 H        -7.0184607690        0.5153899041       -1.3447879980
 H        -8.6823833235        0.1598980524       -1.5533512598
 H       -11.0049185490       -0.2062981924        0.9922908748
 H        -9.3966701778       -0.5948007928        0.4065535773
 H       -10.6495197917       -0.3437881548       -0.6398168632
 H       -11.8201592547        2.5219198919       -0.2614608186
 H       -10.3626998802        3.2983479388       -0.9235246630
 H       -10.8866896063        1.7793589868       -1.6312405723
 H        -8.6983489973        2.6486133435       -2.7333931832
 H        -8.1523903441        1.1102959239       -3.5647125815
 H        -4.4890803092        0.1801388022       -7.1257264250
 H        -3.6826447878        1.0779633413       -6.0529016311
 H        -7.7530624456        2.7108651533       -5.3535752523
 H        -6.6406368722        2.6670196052       -6.6496003490
 H        -6.5352728968        3.8811668763       -5.3988200014
 H        -4.5884128513        3.8876318511       -4.2651221613
 H        -3.6726684453        2.4627827139       -3.8242357610
 H        -4.0195677330        3.1891736506       -5.6244796229
 H        -4.8197670516       -1.8028621350       -5.4585590434
 H        -3.1786788221       -1.4945455864       -5.8184479323
 H        -0.6766756712       -0.7058328754       -1.5108051315
 H        -1.6711320398        0.6657922675       -2.0902321471
 H        -4.1759782931       -3.4087167044       -3.5108053789
 H        -4.9256519913       -2.4164467438       -2.1583493729
 H        -3.5878879918       -3.8732097042       -1.9844282890
 H        -1.6700323990       -2.5655462100       -4.4793213374
 H        -0.7700729057       -1.7655202154       -3.2904893163
 H        -1.1662478225       -3.3879136944       -2.8699856552
 H        -0.8778092883        0.2377830469        0.6806191955
 H        -2.6352063157        0.1090770079        0.4852888982
 H         1.6200740924        3.3153086337       -1.4075086960
 H         2.3468744727        3.9899334095       -0.1289302078
 H        -1.5512748393        3.1229781637       -2.4226691393
 H        -0.1432171006        2.2761143026       -2.2811248378
 H        -0.2270890588        4.0638751521       -2.1453628216
 H        -1.7068777971        5.0177983032        0.0170548123
 H        -1.3644084975        4.1358702292        1.5302056217
 H         0.0217957730        4.8766743114        0.6311238390
 H         4.0008017613        2.0898267378       -0.9864287033
 H         3.6137399946        2.0807135341        0.6006891060
 H         6.6939934900       -0.8957490981        0.0891614688
 H         6.3143558178        0.8685547984        0.5252143505
 H         2.5157844962       -2.4565452530       -0.7533883230
 H         2.5667873499       -1.9911705421        0.9540069668
 H         3.8184039814       -2.9214656108        0.4610620777
 H         3.7546146940       -0.8789938387       -2.4113035953
 H         5.4395485792       -0.2362937122       -2.1023111477
 H         4.8420287585       -2.0670533672       -1.8070423658
 H         6.1447003422       -0.5718656560        3.0824581176
 H         7.3038415346        0.7386688032        2.5723587084
 H        12.3537581818       -0.5610279996        1.8071664241
 H        11.9318205068       -1.9546883555        2.5082436502
 H         9.5269365311        0.6906813391        4.3730961342
 H        10.2677127723       -0.6574762248        5.0237117731
 H         8.5379538354       -0.4250380451        5.2657796539
 H        10.0852614724       -3.2680661568        2.7118079351
 H        10.5187925655       -2.4555465271        4.2810002669
 H         9.0064378664       -3.1443211098        4.2963270159
 H        10.2722469383       -2.2712944022        0.0918560766
 H        11.8326958999       -1.5322640375       -0.4184171294
 H         8.4643436914       -4.9483408761       -0.8400270850
 H         9.6378430108       -5.8649228689        0.0066438825
 H         9.3369327869       -4.4564833391        0.7126971309
 H        13.2222172434       -4.8252829584       -2.3507512409
 H        13.6230560651       -3.2975977475       -1.5293462643
 H        12.3244962898       -3.3634994070       -2.6972883471
 H        11.5127665931       -5.9998715859        0.4014543817
 H        12.2819432155       -6.3477203651       -1.3024771480
 H        13.1907790698       -5.6911439218       -0.0205380037
 Na       -5.2563606501        1.9936847418       -0.0288003265
