155

 C        -3.8257521327        0.0479167298        3.2606913047
 C        -5.2010914805        0.3495150564        2.9762535106
 C        -6.2925084970        0.1765583689        4.1322246367
 C        -7.8174769001        0.3659241524        3.6443202618
 C        -8.4382551043        1.6651066247        3.2662106066
 C        -6.1652527726       -1.4038976489        4.4391621047
 C        -5.9763770286        1.0852341324        5.4363595348
 O        -5.5102293600        0.7449016132        1.8335077217
 O        -8.3688617643       -0.6857130177        3.4399243050
 C        -9.9576358702        1.6746477174        2.8674689139
 C       -10.0935347656        2.4976772640        1.6759675240
 C        -9.7861693869        1.6668799677        0.2622841994
 C        -8.3123653024        1.8086560629       -0.3536297767
 C        -7.8304397610        0.9955295877       -1.4422548125
 O       -10.6351027756        3.6013184443        1.7862939732
 O        -7.5634922928        2.4427589058        0.3861882607
 C       -10.2073432390        0.1568073342        0.4460016158
 C       -10.7186709276        2.2942860749       -0.8222306459
 C        -7.6525474014        1.7257470066       -2.7738139611
 C        -6.2339527044        2.2400902750       -3.0981679656
 C        -5.8291201538        2.2175833024       -4.7370236373
 C        -5.7368218424        0.6551190883       -5.0657183768
 C        -4.7492278943       -0.1264702869       -5.8917872576
 C        -6.9984196255        2.7877643376       -5.6609457622
 C        -4.6316394187        3.1195137433       -4.9853948186
 O        -5.3149567646        2.3437109433       -2.2913047670
 O        -6.7139502240       -0.0062088070       -4.6172625296
 C        -4.1813148504       -1.3924333657       -5.0858570800
 C        -3.6154051852       -0.8467136111       -3.7622330992
 C        -3.0223106163       -1.9691422593       -2.6493616568
 C        -2.8271855051       -1.2621122424       -1.3666978981
 C        -1.8662894608       -0.0200500109       -1.1711869574
 O        -3.3886979697        0.3665526230       -3.7054416658
 O        -3.6706944507       -1.5346811619       -0.5015067620
 C        -4.0295375204       -3.2556125650       -2.7243894047
 C        -1.6042413418       -2.3726798100       -3.3954593017
 C        -1.7794696971        0.5963837438        0.3417637567
 C        -1.8912071634        2.1590953668        0.2463614400
 C        -0.6225208969        3.0339156053       -0.1783422810
 C         0.8470325300        2.3534583648        0.4046970831
 C         2.0579059848        2.7963051380       -0.5077575847
 C        -0.7475513517        3.3349108555       -1.7436081191
 C        -0.8026899004        4.3737416374        0.5779815224
 O        -2.9461203101        2.7149933032        0.5317389444
 O         0.9236572770        1.6379016151        1.3960962271
 C         3.2045501751        1.9163364515       -0.3750592913
 C         2.7690114435        0.4790101784       -0.7594223760
 C         3.8143197541       -0.7161674572       -0.3568190169
 C         4.6210188906       -0.2916675445        1.0159546981
 C         6.1736210219       -0.3897675069        0.8930087425
 O         1.6136096264        0.1881546902       -1.1206074123
 O         3.9590034575        0.0360440506        1.9839167812
 C         2.9007921800       -1.8749761531       -0.0433413094
 C         4.8220853984       -0.9005804947       -1.5327443434
 C         6.9479878831       -0.1445077080        2.2174317589
 C         7.8150503323       -1.4444061171        2.5438979284
 C         9.1628475538       -1.4439172667        3.1506638002
 C        10.3079998616       -0.7884246326        2.0375743897
 C        11.5929726625       -1.3604850893        1.5391135335
 C         9.2865929801       -0.2756003474        4.2391810429
 C         9.6668909418       -2.8352130156        3.6842462587
 O         7.2940191727       -2.4580118229        2.1917729167
 O        10.0340284688        0.3576481657        1.6232616721
 C        11.5486198391       -2.0442058728        0.2200971250
 C        11.7974569607       -3.5224110919        0.3906542304
 C        11.9403582541       -4.4431808811       -0.9502081809
 C        10.4888554934       -4.4257600634       -1.4195298540
 C         9.2346924267       -5.0811028818       -0.8521992435
 O        11.8260897897       -4.0296244164        1.4809820709
 O        10.2137084810       -3.4608208080       -2.2011611127
 C        12.8627816014       -3.8343715181       -1.9653552770
 C        12.4061988687       -5.8538709951       -0.6703306433
 H        -3.3894526675       -0.4061582405        2.3805697959
 H        -3.2239206668        0.8981054229        3.3713768808
 H        -3.7258966019       -0.4863425138        4.1646630821
 H        -8.1739910483        2.4181049905        4.1044968710
 H        -7.8453220795        2.1329032382        2.4472079165
 H        -6.3658538250       -1.9986968963        3.5157895529
 H        -6.8768911873       -1.5854073119        5.3181555211
 H        -5.1343970472       -1.5574655853        4.8787707276
 H        -5.0719132999        0.7965645575        5.9983378834
 H        -6.0340327955        2.1074924863        5.0961390621
 H        -6.8048317480        0.9137329839        6.0785630406
 H       -10.2109413063        0.7033078104        2.6868716975
 H       -10.6226702675        1.8983121451        3.6780493096
 H        -6.8543706167        0.4959531598       -1.2548984753
 H        -8.4905802773        0.2130857178       -1.4937817027
 H       -11.2757954828       -0.0488852559        0.4325646442
 H        -9.6315031264       -0.3872018564        1.2737948594
 H        -9.7478084463       -0.4468691988       -0.3346187570
 H       -11.7397377803        2.0175650082       -0.6452997200
 H       -10.6358938582        3.3482661579       -0.7062333432
 H       -10.3490227705        2.0514105546       -1.7777131957
 H        -8.3323257483        2.5720304411       -2.8226035295
 H        -7.7568682116        1.1116353751       -3.6662211468
 H        -5.0005730177       -0.3929319444       -6.9010758307
 H        -3.8852874118        0.4187271906       -6.2342677196
 H        -8.0019435926        2.2334713510       -5.5511807038
 H        -6.7742462982        2.5603928658       -6.6991820192
 H        -7.0888622367        3.8568647514       -5.4365853701
 H        -5.0037706989        4.1630331094       -4.9250645139
 H        -3.8965496476        2.9288905554       -4.2722313459
 H        -4.3881969077        3.1825517810       -5.9852803920
 H        -4.8134047975       -2.2087810558       -4.9437475482
 H        -3.5030215128       -1.8226166083       -5.7777428282
 H        -0.9014656048       -0.4791453288       -1.3895460451
 H        -2.0109793664        0.7043274528       -1.9957775294
 H        -4.0944830778       -3.7782828466       -3.6473652999
 H        -4.9708683007       -2.6499820305       -2.6042346879
 H        -3.6521709015       -3.9341706134       -2.0318522400
 H        -1.5974621172       -2.7247986464       -4.3728021521
 H        -0.9104887448       -1.5505212927       -3.5672498270
 H        -1.0826761240       -3.0381171680       -2.7313331431
 H        -0.7389588615        0.4065361836        0.6289833914
 H        -2.4371605011        0.1189171022        1.0450515238
 H         1.7051437695        3.0283793045       -1.5135322694
 H         2.2749889776        3.8631319101       -0.2656201513
 H        -1.7440419346        3.8631947142       -2.0146798326
 H        -0.7383964208        2.4385866860       -2.2931046642
 H         0.0152039995        4.1290058459       -2.0365979106
 H        -1.2950292860        5.1210177734       -0.0104180076
 H        -1.4185994188        4.2060600270        1.5424359030
 H         0.2382512941        4.6691414381        0.7610077845
 H         4.2054080182        2.1572150559       -0.7883208742
 H         3.4704960295        1.8357521236        0.6817935005
 H         6.0330558305       -1.4706561804        0.6482332096
 H         6.5547616326        0.1604775850        0.0336910894
 H         2.3523514489       -1.9545987833       -1.1141587595
 H         2.1586097031       -1.7344039594        0.7638258800
 H         3.3684728186       -2.7840245429        0.2839727509
 H         4.3957296905       -0.9565038615       -2.5320888498
 H         5.3987201659       -0.0202912633       -1.6054441775
 H         5.4389084719       -1.7855049336       -1.2972216806
 H         6.3451392980        0.0985263205        3.1031890813
 H         7.6320277294        0.7108859259        1.9741602910
 H        12.3531105834       -0.5707368036        1.6691307987
 H        12.0512767203       -2.0464223476        2.3184719816
 H         8.4869376018        0.5044621462        4.2909180367
 H        10.1238234464        0.3640905024        4.0786777507
 H         9.4032932261       -0.6710255085        5.3384580769
 H         9.1116978482       -3.5291825934        3.1328841517
 H        10.6700804307       -3.0396625416        3.4895697916
 H         9.5574038215       -2.9242135005        4.8018903923
 H        10.5826269472       -1.9190521850       -0.2822714794
 H        12.2846339984       -1.5218597927       -0.3370602681
 H         8.3870018605       -4.8571290554       -1.5216975564
 H         9.2473147010       -6.1584980795       -0.4990463749
 H         9.1027961960       -4.5717286832        0.1326435464
 H        13.1740804572       -4.3673299498       -2.8128809715
 H        13.7586896471       -3.4840047402       -1.3984988387
 H        12.3924786698       -2.8513974693       -2.3242162934
 H        11.6044157193       -6.2940023211       -0.1010605988
 H        12.7308046177       -6.3591174382       -1.6245344691
 H        13.3574619667       -5.7013012883       -0.0899727970
 Na       -5.1714118535        2.2873784605       -0.0156650275
