155

 C        -4.2401527246       -0.6382740038        3.3396501107
 C        -5.3989136149        0.3658898098        3.3487566276
 C        -6.5374763118        0.5287419701        4.6156036668
 C        -7.8865548562        0.7754132734        3.8768484214
 C        -8.3766105773        2.2683085462        3.8131437602
 C        -6.7336010347       -0.8349380400        5.3513205805
 C        -6.2119724237        1.6078340525        5.6568034510
 O        -5.5617351235        1.1319997200        2.3992559246
 O        -8.6051181911       -0.0550065427        3.4146337035
 C        -9.7694008482        2.4189647124        3.0956676571
 C        -9.6880453280        3.0360082128        1.6630124272
 C        -9.4548838529        1.8537927532        0.3808790875
 C        -8.0584995262        2.0131160863       -0.1103986778
 C        -7.6045343550        1.3909570891       -1.4922900524
 O        -9.9805490901        4.1741471980        1.2717876313
 O        -7.1239822917        2.3966308404        0.6220275187
 C        -9.6381252096        0.3557653608        0.8583219308
 C       -10.3526751650        2.2262024323       -0.8415777384
 C        -6.9542245875        2.5889865821       -2.1481322407
 C        -5.7804228114        2.1558031079       -3.1299022879
 C        -6.0130475658        1.7485994609       -4.5127968617
 C        -6.2145973141        0.1035116562       -4.4574849125
 C        -5.3462117213       -0.5832324583       -5.4711890145
 C        -7.4228155703        2.0979256364       -5.1116922911
 C        -4.7754551649        2.1298444738       -5.4434113199
 O        -4.6421897782        1.9480105463       -2.6008645831
 O        -7.2821370154       -0.3793657852       -4.0542237855
 C        -4.4473130865       -1.6723447089       -4.6790806358
 C        -3.4331019398       -1.0188857107       -3.7868589215
 C        -2.8373612092       -1.8348006786       -2.5798968345
 C        -2.8824945023       -0.9592158527       -1.3226581243
 C        -2.2486129718        0.4191222005       -1.2920020547
 O        -3.0000570839        0.0875030149       -3.9639678004
 O        -3.6851836593       -1.3713845963       -0.4748890302
 C        -3.3868210786       -3.2233541669       -2.4283976854
 C        -1.3935787659       -1.9996434148       -3.0541427520
 C        -2.2896205636        0.8138063541        0.1930684138
 C        -2.3170871428        2.3776949985        0.4837710119
 C        -0.9299663009        3.1479497146        0.1358471562
 C         0.3571925298        2.1930739736        0.3472941477
 C         1.5515591462        2.6776734415       -0.5039974844
 C        -1.0918238185        3.4078468036       -1.3678357870
 C        -0.9202731402        4.5444473588        0.9984983807
 O        -3.3323599840        2.9927128372        0.7422154644
 O         0.2959245790        1.2847378356        1.0350137503
 C         2.8818343671        1.9581860829       -0.1013588967
 C         2.8078110966        0.5092358470       -0.6388418713
 C         3.9304834666       -0.6583978587       -0.4542633775
 C         4.9554392120       -0.2932478862        0.6687570909
 C         6.4091012985       -0.6871703525        0.6164596809
 O         1.8035871472        0.2506903638       -1.2366603451
 O         4.4847765126        0.4519002889        1.4956362421
 C         3.0073614483       -1.8122849212        0.0528105692
 C         4.4862259497       -1.3594164333       -1.7977292020
 C         7.1206326938       -0.6026349901        1.8753961003
 C         8.0754417351       -1.8565750862        2.1074886432
 C         9.3323234356       -1.5471596488        2.8348851046
 C        10.3712809269       -1.1085688312        1.6868380666
 C        11.9003708439       -1.5104911328        1.5949660641
 C         9.2878378538       -0.3241178707        3.7903018835
 C         9.6751387910       -2.7843257643        3.8356892288
 O         7.8628784262       -3.0526857224        1.7830729254
 O         9.9251484650       -0.3893406772        0.8205152188
 C        11.9547325791       -2.1758496640        0.2191164255
 C        11.4607719465       -3.5184497396        0.0771173708
 C        11.8464198185       -4.3118708753       -1.2228752718
 C        10.5226057059       -4.3403913488       -2.0661027540
 C         9.8329827395       -5.6878505548       -2.4905558902
 O        10.7799077312       -3.9551884344        0.9985882077
 O        10.1754080857       -3.3003940112       -2.5552321569
 C        12.8594308348       -3.6152528410       -2.0860017438
 C        12.4111415495       -5.6584382619       -0.7924323664
 H        -4.2572715620       -1.4818041728        4.0494576831
 H        -4.2309889751       -0.9108936738        2.3522913162
 H        -3.3940905563       -0.1020414168        3.5688823343
 H        -8.4454791997        2.8865306204        4.6678599271
 H        -7.7460544970        2.8417391076        3.1315242491
 H        -6.3618252666       -1.7308075192        4.8393980972
 H        -7.8285007013       -0.9323380515        5.5705191104
 H        -6.1549048296       -0.6325391558        6.2938417873
 H        -5.4552358048        1.3264987870        6.2891386853
 H        -5.8679323331        2.5370888618        5.2324938431
 H        -7.1984738990        1.6426124694        6.1188914429
 H       -10.3040192913        1.4506961816        2.9713712654
 H       -10.2615116328        3.1080659797        3.7234846533
 H        -6.8393573716        0.6095842988       -1.1203629119
 H        -8.2985659273        0.9933357627       -2.2822464557
 H       -10.5362363726        0.3936105550        1.5345104715
 H        -8.8437234548       -0.1774084589        1.4050197644
 H       -10.1156284281       -0.1704640337       -0.1014867150
 H       -11.3491708423        2.3423439900       -0.4994388867
 H        -9.9983688267        3.0753164282       -1.3855844629
 H       -10.4147217755        1.3235536072       -1.4613405801
 H        -6.4979022401        3.2963993788       -1.4671263211
 H        -7.7803686993        3.1054998777       -2.6365267405
 H        -6.0556869626       -1.2336614663       -5.8779239716
 H        -4.9118536965       -0.0181152655       -6.3278507259
 H        -8.0829624157        1.7462033145       -4.2938761940
 H        -7.5557513870        1.5434524882       -6.0754598048
 H        -7.5661630285        3.2211184901       -5.4098881933
 H        -4.7500675090        3.2118075171       -5.4159954235
 H        -3.8454344992        1.6691653743       -5.1680799973
 H        -5.0450817306        1.6909299305       -6.4401388010
 H        -5.2900832747       -2.1587364569       -4.0135552315
 H        -4.0452039998       -2.4858594832       -5.3413901711
 H        -1.2625994091        0.5727325262       -1.7189048648
 H        -2.7831462505        1.1335360363       -1.8164759398
 H        -3.1288207375       -3.6524601270       -3.4230037049
 H        -4.4372435893       -3.2986512202       -2.1551193996
 H        -2.9183550700       -3.6154212441       -1.5587850834
 H        -1.3382045051       -2.5301490501       -3.9948738761
 H        -0.8051805998       -1.0623245805       -3.0926667412
 H        -0.6763064436       -2.7493247585       -2.4605733026
 H        -1.3636647249        0.4642409290        0.7107475874
 H        -3.0998783495        0.2796055677        0.7316539162
 H         1.2542864580        2.6482228430       -1.5246791926
 H         1.7015724214        3.6919078249       -0.2132567277
 H        -1.8732149342        4.2163757889       -1.4296545775
 H        -1.2203127901        2.5737816253       -1.9974751417
 H        -0.1275996921        3.7932204662       -1.8481016314
 H        -1.4336049212        4.1637000599        1.8263370456
 H         0.0733261398        4.8703132765        1.1771425589
 H        -1.4507302066        5.3642385957        0.4717581850
 H         3.6605500638        2.4130800305       -0.7087044541
 H         3.0251936252        2.1650636167        1.0008334406
 H         6.5360564563       -1.6787822473        0.1999911635
 H         6.9460948907       -0.1085042350       -0.1596147611
 H         2.3777852366       -2.1848616882       -0.7758097957
 H         2.2178198948       -1.5076529292        0.7719443799
 H         3.5514545925       -2.5728880304        0.3435863877
 H         3.5660238170       -1.6523704450       -2.3020981594
 H         5.0513405437       -0.7502179025       -2.4917140728
 H         5.1088231666       -2.2224432054       -1.6467503022
 H         6.7711052325       -0.7621495187        2.8728692752
 H         7.6895147681        0.2622322186        2.0166749359
 H        12.4803223518       -0.6539109274        1.7018464102
 H        12.0675386582       -2.2734212131        2.2974465846
 H        10.1850209099       -0.3169448809        4.2625532878
 H         8.5808613599       -0.4308310295        4.6016424680
 H         9.0962688469        0.6112540829        3.3050825835
 H         9.6871985101       -2.6387271197        4.8814982124
 H         9.0484318566       -3.6206966244        3.4033240057
 H        10.7605059635       -3.1209296374        3.6571662647
 H        11.6739219267       -1.4849072633       -0.4969797047
 H        13.1784301379       -2.2479995217        0.2185700218
 H         8.7338935049       -5.6383237367       -2.5001125801
 H        10.2065520473       -5.7721188522       -3.5078946399
 H         9.9808207231       -6.6942739339       -1.9665374116
 H        13.1371892686       -4.0261366190       -3.1139604093
 H        13.7978997573       -3.6939856128       -1.5854577391
 H        12.6673886139       -2.5813328826       -2.2482351018
 H        11.5908392866       -6.2802289726       -0.3129636705
 H        12.8997667086       -6.2005344562       -1.5765531385
 H        13.0295235059       -5.2347340231       -0.0147819939
 Na       -5.0868029595        1.9819829646        0.1211328120
