155

 C        -5.3201381975       -0.9577649567        3.4281442233
 C        -5.9436970172        0.4086708400        3.5333675354
 C        -6.5800647508        0.9361723520        4.8884574126
 C        -8.1934391082        1.1743590759        4.4922555042
 C        -8.3145169022        2.6413170576        4.0507274839
 C        -6.3810615610        0.0097605454        6.1020133021
 C        -5.7719956717        2.2529679186        5.2679161485
 O        -5.9824178705        1.0716932979        2.4738693482
 O        -9.0881308928        0.3207859435        4.5613382086
 C        -9.6395575554        3.0952099481        3.3858332876
 C        -9.4116462095        3.5088238742        1.8370496027
 C        -9.7519856819        2.4922591250        0.5891050923
 C        -8.4947465816        2.4619064941       -0.2942483440
 C        -8.6512773021        2.7570405551       -1.7715110034
 O        -9.0944556486        4.5191010150        1.3257143044
 O        -7.4332371139        2.1782913192        0.1890718481
 C       -10.1093906333        1.1062817532        1.0016870218
 C       -10.9711590097        3.2310325764       -0.0219168378
 C        -7.3606826644        3.0925643883       -2.4247897905
 C        -6.2261007910        2.0126441807       -2.6558167697
 C        -6.0821434161        1.2333158296       -3.9706459084
 C        -6.4858699607       -0.3597963905       -3.8991706122
 C        -5.5872081062       -1.5869797289       -4.5745893825
 C        -7.0334387324        1.7690280751       -5.0298152531
 C        -4.6676832802        1.2899556467       -4.4431959436
 O        -5.2958207728        1.8386000920       -1.8677033529
 O        -7.4130605777       -0.7442447351       -3.1743413710
 C        -4.4890547746       -2.3014936950       -3.7110351173
 C        -3.1012970497       -1.5852952689       -3.6546088691
 C        -2.2653045960       -1.7610045869       -2.2462948956
 C        -2.5698964400       -0.5029243034       -1.4591291728
 C        -1.3917333705        0.1083990407       -0.6969258667
 O        -2.7436106312       -1.0880768990       -4.7155015301
 O        -3.7793401927       -0.2549400469       -1.2407031193
 C        -2.6822236323       -3.0055833731       -1.5160701947
 C        -0.7672647708       -1.9979929479       -2.5874322954
 C        -1.9865306370        0.8925119071        0.4022064126
 C        -2.3245834927        2.4430443229        0.1901526014
 C        -1.1489263635        3.3975337463        0.2021178371
 C         0.1823028139        2.8707286294        0.7133806290
 C         1.1826347148        2.2824189535       -0.5113016160
 C        -0.8389084605        4.2917271222       -1.1107084878
 C        -1.5139988974        4.4324220646        1.3594368010
 O        -3.3578361028        2.9022365014       -0.1377799185
 O         0.4106099380        2.8034577902        1.9288239903
 C         2.5392878478        1.3522190890       -0.1845855125
 C         2.5895009674        0.0918123068       -0.9426538834
 C         3.7300796906       -0.9010507210       -0.5693488896
 C         5.0454288021       -0.4469628189        0.3011332356
 C         5.8241222819       -1.5194279587        0.9322890905
 O         1.8145575229       -0.0641218883       -1.9076067069
 O         5.4151800949        0.7470001724        0.2716307568
 C         2.9941312960       -2.2252961947        0.0325283709
 C         4.4328821950       -1.2700144639       -1.9179666939
 C         7.3775730149       -1.3954894825        0.7781187522
 C         8.0506227599       -2.2057218493        1.9296542625
 C         9.5644897712       -1.9348371166        2.4114503764
 C        10.6336602211       -1.3141105341        1.3777183923
 C        12.0949932158       -1.9064540810        1.4417302535
 C         9.5413590229       -0.7672995961        3.5455887943
 C         9.9224595940       -3.2543134461        3.1552437688
 O         7.5889653371       -3.1750177572        2.4243345791
 O        10.3349301168       -0.5857622494        0.4475018472
 C        12.5670957243       -2.5474324484        0.0874765942
 C        11.4507209804       -3.4113663989       -0.5954578338
 C        11.9172628451       -4.2759427142       -1.8203765650
 C        10.7743827784       -4.4234712331       -2.9755409547
 C        10.5793396866       -5.6415869222       -3.7525080455
 O        10.3458840093       -3.4212616138       -0.1101031571
 O        10.0066102800       -3.4640260767       -3.2411264244
 C        13.1694576946       -3.6187415367       -2.4981971590
 C        12.2708562529       -5.6084141711       -1.2066820683
 H        -5.5286726954       -1.3062484161        2.4248005508
 H        -4.1825623480       -0.8135750363        3.5324607351
 H        -5.4981024113       -1.6625468533        4.3095407376
 H        -8.0422447075        3.3981294115        4.8547114238
 H        -7.5685968481        2.7438031769        3.1973311490
 H        -7.0455270458       -0.8547221028        6.1920509139
 H        -6.4446889547        0.6553384548        6.9794893192
 H        -5.4171810676       -0.4557114923        6.1559326853
 H        -4.8386649995        2.0029872158        5.7683471867
 H        -5.8302890468        2.9478926305        4.4507506270
 H        -6.3263395446        2.7369931065        6.0768032344
 H       -10.3644973609        2.3832950951        3.4476882652
 H       -10.0335251532        3.9881276039        3.8343906935
 H        -8.9876959126        1.7846384021       -2.1835782914
 H        -9.3506069226        3.5100796667       -1.8681807041
 H       -10.8263523047        1.3200235964        1.8434372934
 H        -9.3258033894        0.3342407740        1.1212591161
 H       -10.7813551209        0.7861786771        0.2696613748
 H       -11.7880215205        2.9641615563        0.6918427035
 H       -10.8568419289        4.3287058327       -0.0271026870
 H       -11.2597639375        2.8971143417       -1.0654215399
 H        -6.9269978612        3.9206308476       -1.8631213502
 H        -7.5976959286        3.5627592712       -3.3798021663
 H        -6.2201208854       -2.4104248949       -4.7070942233
 H        -5.1748514625       -1.2784010318       -5.4301339079
 H        -8.0467905450        1.4916987856       -4.7899374721
 H        -6.8727617230        1.1564722927       -5.8562928517
 H        -7.0441368080        2.7607229474       -5.2175572702
 H        -4.2960199944        2.3923522763       -4.4630478024
 H        -4.1184209246        0.8537996288       -3.6296753614
 H        -4.4805047518        0.8289425784       -5.4101364472
 H        -4.8181223776       -2.6211260322       -2.7414080313
 H        -4.3300483364       -3.1048324185       -4.3314086946
 H        -0.8813790560       -0.8094252900       -0.2669492594
 H        -0.6760925392        0.6955810765       -1.2173726422
 H        -2.6351003360       -3.9239968172       -2.0271798506
 H        -3.8196103855       -2.8496096486       -1.2502708468
 H        -2.0409773660       -3.1991025644       -0.6161486823
 H        -0.5970140769       -2.9970816311       -2.9777860490
 H        -0.1025181278       -1.3949965309       -3.2425028383
 H        -0.3044361979       -1.9270936968       -1.6756875911
 H        -1.4284460291        0.7703886007        1.3433820476
 H        -2.9051620596        0.4143718909        0.5758798945
 H         0.4368785545        1.7618469403       -1.1416938672
 H         1.5983407238        3.2104372999       -0.9372719757
 H        -1.5782309552        4.7500317765       -1.7518385931
 H        -0.3292436616        3.6726797230       -1.8253847740
 H        -0.1567503780        4.9893634075       -0.6952860363
 H        -1.7045306441        3.8709145637        2.2785180313
 H        -0.5004451758        4.8932109540        1.5798729938
 H        -2.3372623712        5.0225317456        0.9637080623
 H         3.3637727303        1.9200862026       -0.5596352921
 H         2.5694583108        1.1460642426        0.9136755687
 H         5.6703832985       -1.4307494307        2.0443464160
 H         5.4853454959       -2.5628838914        0.7519388631
 H         2.4625675626       -2.7435122580       -0.7950773656
 H         2.3925997625       -2.0679098201        0.8612629442
 H         3.6777943931       -3.0646183685        0.4787353992
 H         3.7844488206       -1.5238915823       -2.8152531023
 H         4.9819358539       -0.3713627238       -2.2348387808
 H         5.1109235844       -2.1838185076       -1.7649659933
 H         7.4801398892       -0.2828560652        0.7111042520
 H         7.6705532976       -1.6639286846       -0.2721833815
 H        12.7053106278       -1.0284203123        1.7296493317
 H        12.1396104772       -2.7004872166        2.2199441842
 H        10.6287601160       -0.7946749214        4.0409603056
 H         8.7254447906       -0.8874719398        4.2531989433
 H         9.5025153040        0.1820326422        3.0747189475
 H         9.4353036160       -3.4563871897        4.1061927172
 H         9.6843548790       -4.1014517943        2.6309962542
 H        11.0024794881       -3.2518213262        3.2299927864
 H        13.0439896509       -1.7530421876       -0.4984345592
 H        13.6042315839       -3.0650833533        0.2766249840
 H        10.3626834505       -5.3111295057       -4.7463777580
 H        11.4283191856       -6.3320066324       -3.8679882626
 H         9.7532956348       -6.2391578996       -3.4063889273
 H        13.3648888093       -4.1029991660       -3.4249825596
 H        14.0976229270       -3.6395632009       -1.9438761659
 H        13.0743298973       -2.5061917975       -2.7537709104
 H        11.5118818004       -6.0518825610       -0.6270562970
 H        12.7358641814       -6.2309769687       -1.9679065386
 H        13.1731513566       -5.4468789829       -0.6119228099
 Na       -5.0401078163        1.1841638366        0.2177408053
