155

 C        -6.8595259811       -0.5084588571        2.7564519348
 C        -6.0592454453        0.8219447687        3.1541649815
 C        -6.0126715340        1.4466953910        4.6434248983
 C        -7.1114279226        2.5713649030        4.5830906378
 C        -7.0671109381        3.5699933217        3.3893341450
 C        -6.5840965713        0.4887208893        5.7431156393
 C        -4.5993490220        1.9903705808        4.9322359263
 O        -5.3834675033        1.3504336588        2.3245365303
 O        -8.0653004772        2.5610081849        5.3075592973
 C        -8.5915796905        4.2281438378        3.1796671714
 C        -9.1296979343        4.4438492527        1.7156719304
 C        -9.5471049001        3.1684468036        0.8733385948
 C        -8.2374159178        2.7168791877        0.0369762403
 C        -8.1934599641        3.2957082557       -1.4254616083
 O        -9.2264631219        5.5218007811        1.2060278461
 O        -7.4707052102        1.9138588368        0.4678651447
 C        -9.8139820951        1.9255397411        1.7572442642
 C       -10.7700239185        3.4512154556       -0.0084261218
 C        -8.0755907714        2.3692662581       -2.6402991055
 C        -6.6481282950        1.5070899978       -2.6603316543
 C        -6.4920148154        0.3624501820       -3.9738860004
 C        -7.0245157729       -0.9269043190       -3.1842898495
 C        -6.0578527177       -2.1175811658       -2.9530834518
 C        -7.4101437019        0.7194775892       -5.2170959007
 C        -4.9940931059        0.3908058873       -4.2384460875
 O        -5.7724200719        1.5713936690       -1.8544615975
 O        -8.1933505552       -0.8399649722       -2.8558874897
 C        -5.0838464324       -1.8879935656       -1.8710871449
 C        -3.5694507730       -1.9445169830       -2.3064269533
 C        -2.5186571852       -1.8736761427       -1.0689749991
 C        -2.9239875852       -0.7753786608        0.1045765135
 C        -1.8469430641       -0.3609065413        1.1091183287
 O        -3.0413006302       -1.9951704116       -3.3845544708
 O        -4.0330631849       -0.3302375755        0.2282007611
 C        -2.4238956832       -3.2272111591       -0.2110457368
 C        -1.0990269284       -1.5441441830       -1.5971136721
 C        -2.0711681951        1.0238318750        1.7657613158
 C        -1.9217254464        2.0731693649        0.6741163330
 C        -0.5216172539        2.8932861523        0.4196253972
 C         0.8782341146        2.0854612485        0.5748505486
 C         2.2222382660        2.6851454352        0.1935274955
 C        -0.8273772353        3.7727435860       -0.8132862574
 C        -0.4701255002        3.7927522850        1.6785544967
 O        -2.9164340944        2.5318718648        0.0990989678
 O         0.7782083282        1.1016292572        1.3569514831
 C         3.2284357407        1.6081044895       -0.1820170498
 C         2.5791143385        0.3983840272       -0.8053343049
 C         3.6075567535       -0.8368366895       -1.0369805841
 C         4.9582555564       -0.5490072670       -0.3444282074
 C         5.4267772044       -1.3597499272        0.9018392508
 O         1.4032664673        0.3996987508       -1.2162232448
 O         5.7146582161        0.2376667122       -0.8636307890
 C         2.8896617030       -2.1488777771       -0.3642364042
 C         3.9120262616       -1.1837307649       -2.5192778130
 C         6.8916345425       -1.0842613606        1.2302968243
 C         7.7882197934       -2.3043093482        1.7671562753
 C         9.2676685674       -1.9425983064        1.9844635353
 C         9.9825003056       -1.5101998262        0.5748376721
 C        11.2599634115       -2.1464150557        0.0611099537
 C         9.5383516404       -0.6501654657        2.9938234834
 C         9.8690357637       -3.2536471088        2.5662627998
 O         7.3942043045       -3.3990301094        1.7720357831
 O         9.4703426037       -0.6835625479       -0.1310414310
 C        11.2487112852       -2.3889464821       -1.4592286291
 C        11.3082175036       -3.9186508071       -1.6743580485
 C        12.0320087747       -4.5626429877       -3.0156238689
 C        11.0838435119       -4.2328431965       -4.1849278130
 C        11.2615474045       -4.8970814463       -5.6272181312
 O        10.8160843081       -4.6761383703       -0.8878116329
 O        10.2316377422       -3.3693631331       -4.1198651919
 C        13.5445117658       -3.8721414548       -3.3166567615
 C        12.1806083443       -6.0447305130       -2.6542453646
 H        -7.0332789664       -0.4321589716        1.6722172260
 H        -6.0713470102       -1.2970030917        2.9571394545
 H        -7.8521360060       -0.6329063740        3.3472467068
 H        -6.3140825505        4.3898700628        3.5340030236
 H        -6.7665125889        2.9526353522        2.4510994899
 H        -7.3117574086       -0.2165411099        5.4405107498
 H        -6.9588893798        0.9940048157        6.6011054366
 H        -5.8439930131       -0.1173214428        6.1593298441
 H        -3.8723969428        1.2018172752        5.0364012532
 H        -4.4771393131        2.7142308803        4.0909236139
 H        -4.4839443096        2.5468197884        5.8876600266
 H        -9.2226090430        3.7171211643        3.7667175367
 H        -8.5704478978        5.2255149347        3.5966613841
 H        -8.8642184438        4.1374043541       -1.6069053033
 H        -7.2107188818        3.7156545108       -1.5680780842
 H       -10.0843697739        2.0371876190        2.7444861623
 H        -9.0240288793        1.3071985986        1.7752450549
 H       -10.5895367775        1.3695335770        1.2523600335
 H       -11.6980616425        3.7398103137        0.4029449719
 H       -10.4497878788        4.3927427300       -0.4235457107
 H       -10.8458700140        2.8016855113       -0.8812998465
 H        -8.2498499427        3.0311931283       -3.5007129612
 H        -8.8619080797        1.5973974097       -2.6494713859
 H        -6.8066906669       -2.8207442356       -2.5488909630
 H        -5.5158354997       -2.5556158806       -3.6955792394
 H        -8.4894213992        0.7846566861       -5.0286325051
 H        -7.4582570023       -0.1105509064       -5.8969221252
 H        -7.0988795372        1.6290680292       -5.6494459585
 H        -4.6947865481        1.4212936274       -4.5381179257
 H        -4.3774767173        0.4159208907       -3.3493489015
 H        -4.7620404103       -0.5090900176       -4.7345446055
 H        -5.0227593953       -0.9098771366       -1.4570113813
 H        -5.1890894915       -2.5005158573       -1.0518704830
 H        -1.8555691308       -1.1460261737        1.8978017473
 H        -0.8859417070       -0.3832584468        0.5803972878
 H        -2.2619105890       -4.0657744182       -0.8337124179
 H        -3.2351529227       -3.2371396995        0.4974765960
 H        -1.7014811528       -3.0636707477        0.6162004295
 H        -0.7155161261       -2.4021735610       -2.3171760143
 H        -1.0142370442       -0.5441484224       -2.0323453794
 H        -0.4417480230       -1.5083097707       -0.7596665769
 H        -1.2923549290        1.0352104541        2.5159770481
 H        -3.0463874814        1.0925999347        2.2586526698
 H         2.1792313744        3.6844567438       -0.2944051364
 H         2.6665625777        3.0371240426        1.1763799175
 H        -1.7733375361        4.2237750313       -0.5908500851
 H        -1.2136446018        3.2569448761       -1.6795837985
 H        -0.0263475331        4.4477671275       -1.0815940713
 H        -0.9891133053        3.2481793800        2.4178268777
 H         0.5727256831        4.0269220825        1.9243196978
 H        -0.9766096919        4.7332337750        1.5275547667
 H         4.1168344384        1.7475369779       -0.8339517142
 H         3.6947665474        1.4262084718        0.8049042896
 H         4.7624150999       -1.1021701900        1.7116782980
 H         5.3269527119       -2.4281264917        0.5754109809
 H         2.0096743625       -2.4528994135       -0.7560768262
 H         2.5753463626       -1.6811628318        0.5733569724
 H         3.6089694836       -2.9642741993       -0.3494601651
 H         3.2146088553       -1.9188618827       -2.8579799910
 H         3.8322148473       -0.2684859821       -3.0913590739
 H         4.8864536571       -1.6646802042       -2.7874588242
 H         6.9310629201       -0.4080274704        2.1526739590
 H         7.3116027021       -0.6742033060        0.2906628217
 H        11.9852422815       -1.2939849858        0.1757342960
 H        11.5349654157       -3.0870373370        0.5317657934
 H        10.4978248165       -0.7840553981        3.3468560754
 H         8.7307486796       -0.5236310190        3.8384123081
 H         9.5685735121        0.3534698936        2.4951100482
 H         9.2647984835       -3.5457423345        3.3874453381
 H        10.0245260411       -4.0579317777        1.9049033232
 H        10.8989952318       -3.0966149879        2.8265374605
 H        10.3536560109       -2.0323280050       -1.8602712492
 H        12.1706968201       -1.9237363892       -1.9088587686
 H        11.6482048883       -4.2197508988       -6.3035191021
 H        11.7626676031       -5.8463965687       -5.6898071062
 H        10.3506169523       -5.1358436872       -6.0984108611
 H        14.0640722834       -4.4225552365       -4.0730707815
 H        14.0372081880       -3.8641333893       -2.4139942025
 H        13.4574778446       -2.7629069754       -3.5279891790
 H        11.2471799883       -6.4774834227       -2.4563070943
 H        12.8193712447       -6.6474469012       -3.2919446793
 H        12.7001291606       -6.1368701198       -1.7022787597
 Na       -4.9875901335        1.6623865079        0.3411938051
