155

 C        -5.9562250122       -0.1460030523        3.9962322550
 C        -5.7285155918        1.3189313688        4.0104811412
 C        -6.1928235338        2.0136141878        5.3040162201
 C        -7.2958347048        2.9874526578        4.8122088209
 C        -6.8004152472        4.1026229186        3.7770141131
 C        -6.8385489403        1.1412639096        6.3895345575
 C        -4.9311030694        2.8360360653        5.8246432690
 O        -5.3018199924        1.9400099619        2.9994490880
 O        -8.4290597226        2.7651101665        5.2099583726
 C        -7.9891641034        5.0499400306        3.3105571394
 C        -8.6252266174        4.9813042249        1.8470314364
 C        -8.9029312036        3.6636035493        1.0353643604
 C        -7.5504711637        3.3022023914        0.2277343214
 C        -7.4457794771        3.2092793236       -1.2750550093
 O        -8.7510371247        6.0343861670        1.2253385444
 O        -6.5549104680        2.9181339160        0.8691092516
 C        -9.1102291662        2.2639601602        1.7400497162
 C       -10.0576190713        3.8431404425        0.1199095773
 C        -7.7790637550        1.8559343809       -1.9046870384
 C        -6.6488051236        1.1344009951       -2.7332319984
 C        -6.8731403262        0.1235559327       -4.0166399695
 C        -7.1331174095       -1.3142129817       -3.2535433997
 C        -6.0523658173       -2.2620781924       -2.9321716513
 C        -8.1227701247        0.3963188281       -4.9126233854
 C        -5.5076788390        0.1665237718       -4.8127936341
 O        -5.4961649791        1.4635308890       -2.4481602386
 O        -8.2749920960       -1.5707016239       -2.8926897208
 C        -5.3619393290       -2.1230547934       -1.5497166207
 C        -3.8308636104       -2.4069001561       -1.6086793815
 C        -2.9028130806       -2.1612573226       -0.4214109474
 C        -3.2837851817       -0.9011371976        0.5150090935
 C        -2.3304123282       -0.2429858591        1.5241725245
 O        -3.2540015809       -2.8758082581       -2.6044384508
 O        -4.3734803875       -0.4024649435        0.5879356318
 C        -3.1062457805       -3.3436518661        0.5477883412
 C        -1.4568007675       -2.1055812166       -0.8766179173
 C        -2.4800050821        1.2457087258        1.9145570603
 C        -1.9697999401        2.1291555668        0.7227605586
 C        -0.5929924301        2.9741579541        0.9059172344
 C         0.5619546207        2.0269786746        0.8281235066
 C         1.5976156771        2.3261233409       -0.2305431516
 C        -0.5717385412        3.8603759205       -0.3558455874
 C        -0.7749273827        3.7733006655        2.2394704893
 O        -2.6447089198        2.1627620875       -0.2624692164
 O         0.5516895450        0.9773751917        1.4092500890
 C         2.7775197830        1.2438645292       -0.2452158796
 C         2.5816150984        0.2336899026       -1.3553941335
 C         3.6117540712       -0.9525395716       -1.3566750078
 C         5.0607142473       -0.5400733261       -0.7249495751
 C         5.8251987718       -1.7155706611       -0.1566727334
 O         1.5442255770        0.3566632086       -2.0367036556
 O         5.4640979807        0.6084373498       -0.7560602871
 C         2.9968547541       -2.1376214188       -0.6236817125
 C         3.9322347097       -1.2383864554       -3.0051813316
 C         6.7955030100       -1.2668642907        0.8792589296
 C         7.7114973131       -2.3397050134        1.4868555606
 C         9.2127616725       -1.8147064231        1.7622559062
 C         9.7896826035       -1.8738838295        0.2496174507
 C        10.7390282569       -3.0634534516       -0.0980973946
 C         9.1221531985       -0.4182871855        2.3208222304
 C        10.1369562484       -2.6716040786        2.6218806295
 O         7.3942938890       -3.4907662512        1.6974535216
 O         9.3157072040       -1.0035849658       -0.4865378660
 C        11.0756024664       -3.0481437315       -1.6513162208
 C        11.7329834015       -4.3212524940       -2.1935104140
 C        11.9250742577       -4.6011527790       -3.7207064967
 C        11.1245925342       -3.9051280320       -4.8740121919
 C        11.5318951536       -4.1259696495       -6.3075946857
 O        12.2937562867       -5.1392174375       -1.4845997703
 O        10.1101833634       -3.2674930098       -4.5618521402
 C        13.3619514750       -4.3025764594       -4.0072628849
 C        11.7426311895       -6.1986239467       -3.8571590839
 H        -6.9785882559       -0.3125415446        4.3525578577
 H        -5.5752359627       -0.5263743171        3.1230724715
 H        -5.4031142535       -0.5342746177        4.7653958117
 H        -6.0251299808        4.6748466580        4.2647627899
 H        -6.5485755169        3.6125855099        2.8029283551
 H        -6.0881527264        0.9117095633        7.2341540052
 H        -7.3486406103        0.2210592138        6.0335182314
 H        -7.6425018312        1.8053692102        6.8408593166
 H        -4.1158042505        2.1049540109        5.8624841365
 H        -4.5830189313        3.4143827598        5.0011996940
 H        -5.0297255051        3.4053725318        6.6830615230
 H        -8.8601172065        4.8448235122        3.9627732202
 H        -7.7414482775        6.1460770213        3.5288948642
 H        -8.1799384549        3.9103753854       -1.7144783009
 H        -6.4810950865        3.5235740184       -1.4247278125
 H        -8.1530782247        1.7084512694        1.8587203985
 H        -9.9231362111        1.5819178616        1.2666543050
 H        -9.5262658991        2.4151222580        2.7030459394
 H       -11.0059752212        3.7035321398        0.6793219332
 H       -10.0124363105        4.8082008553       -0.4185733539
 H       -10.1317174429        3.0936297404       -0.7014359590
 H        -8.6462593091        2.0340770219       -2.5968009536
 H        -8.2321643771        1.0404713012       -1.2685494781
 H        -6.6057259888       -3.0945161478       -3.1081171825
 H        -5.2737105803       -2.3981555802       -3.6559123952
 H        -9.0294294509        0.8596971755       -4.5535849132
 H        -8.2659962875       -0.4802022825       -5.6105802249
 H        -7.7534335893        1.1107729234       -5.7172562986
 H        -5.5999798043        0.9916976745       -5.4693934902
 H        -4.6771706642        0.0730244375       -4.1226089103
 H        -5.4015954928       -0.4990603006       -5.6423346909
 H        -5.5481564122       -1.1035245764       -1.1359047396
 H        -5.8169372783       -2.8245826420       -0.9614262756
 H        -2.2441904887       -0.9812509480        2.4340898765
 H        -1.3364575588       -0.4876378245        1.1725987727
 H        -2.6877365771       -4.3401315269        0.2634255148
 H        -4.1315711522       -3.4533548931        0.6260566613
 H        -2.3878202572       -2.9915229444        1.3262895362
 H        -1.2490131352       -3.0547117334       -1.1398132571
 H        -1.4719960801       -1.5208756969       -1.8057159427
 H        -0.7452062062       -1.8358153733       -0.0719147642
 H        -1.7616992990        1.3616693847        2.7500925216
 H        -3.5040979192        1.4750507015        2.2308010003
 H         1.0874371876        2.0862369553       -1.1673744992
 H         1.9189347295        3.3479434642       -0.3152893715
 H        -1.4449342462        4.4869235893       -0.4789767801
 H        -0.3017266390        3.1556642951       -1.2273094810
 H         0.1895366496        4.6228591406       -0.4237731624
 H        -1.1375363134        3.2469313086        3.1948453592
 H         0.1793424692        4.2684422131        2.6234571461
 H        -1.5062459250        4.5380175652        1.9715631961
 H         3.7587386924        1.6564927115       -0.3269302107
 H         2.8884364323        0.8567932152        0.7349349117
 H         5.2301770226       -2.5449959095        0.0246422977
 H         6.4054168562       -2.1531856107       -1.0199432087
 H         1.8911669393       -2.4729855858       -0.7986295270
 H         3.3304682783       -2.2513057109        0.3512541413
 H         3.6162337492       -2.9849896476       -1.0732556520
 H         3.2680102363       -1.9894844700       -3.4289783541
 H         3.5899026104       -0.3699049251       -3.5664331998
 H         5.0098965067       -1.4557455044       -3.2967234235
 H         6.3176175420       -0.9062499729        1.8690733044
 H         7.3836698338       -0.3733237843        0.6337500114
 H        11.7855940022       -2.7976281132        0.4103901704
 H        10.4999006650       -4.1037783620        0.3146871807
 H        10.1195747852       -0.2494796023        2.9913093894
 H         8.2797189537       -0.3295188259        3.0432904161
 H         9.0189961840        0.3592791151        1.5110592792
 H         9.9172131417       -2.4795843088        3.7532304889
 H         9.9151518203       -3.7716593387        2.4355399934
 H        11.1267422950       -2.3162120432        2.6089239051
 H        10.1081947731       -3.0082028346       -2.3116712241
 H        11.7084094599       -2.2875563555       -1.9324882478
 H        10.6705214387       -4.3751153738       -7.0138249043
 H        11.8710428482       -3.1529867731       -6.7895294310
 H        12.2743132909       -4.9425646707       -6.4162814287
 H        13.6595324104       -4.4981980405       -5.0186279247
 H        13.9613420562       -4.9633864856       -3.3258456523
 H        13.4404023504       -3.1733019044       -3.9610836241
 H        10.7351520203       -6.5104680683       -3.7915346707
 H        11.9098669630       -6.6351051702       -4.8606142111
 H        12.3038168270       -6.7011625170       -3.0530419248
 Na       -5.1705964525        1.4482553640        0.0227066469
