155

 C        -6.4266232937        1.7243300858        6.4778437978
 C        -5.6343019379        2.9993824554        6.4581833460
 C        -6.3820332768        4.4432138599        6.4260264680
 C        -7.1245483095        4.4976703319        4.9480651477
 C        -7.3091828212        5.9930921804        4.3275983903
 C        -7.6644362649        4.2416735149        7.3111231094
 C        -5.4885557878        5.5958223306        6.8701294801
 O        -4.5100735704        3.0157173403        6.8496282190
 O        -7.4257704240        3.5170923771        4.3787777684
 C        -8.1692425433        5.8867153649        2.9919258634
 C        -7.4524042023        5.0426981710        1.9564634259
 C        -8.3821855772        4.2554273007        0.6007398425
 C        -7.6055595022        3.1231427798        0.1444873083
 C        -8.3319247828        1.7751572584       -0.1422136708
 O        -6.3206773632        4.9527571908        1.8077125638
 O        -6.3742955649        3.1548069788        0.2675919355
 C        -9.8362154069        4.0320718012        0.9484036882
 C        -8.3765103239        5.3928728098       -0.4904229609
 C        -7.5492984977        0.4489699984       -0.5578554043
 C        -6.9454379889        0.6151913289       -1.9910847094
 C        -7.4792390335       -0.2388244736       -3.2431834838
 C        -7.2438861726       -1.8265837753       -2.8317621053
 C        -5.8568735712       -2.1261734393       -2.2340343792
 C        -8.8852083556        0.0311325292       -3.6519707466
 C        -6.6449028577        0.0426821229       -4.5006004320
 O        -5.7590959341        0.8383191979       -2.0970726902
 O        -8.2533968209       -2.4276108558       -2.6903659571
 C        -6.1907985161       -2.8196578183       -0.7956548924
 C        -4.8035882992       -3.0927256791       -0.1310134635
 C        -4.3956886549       -2.6205632151        1.3371600515
 C        -3.9652461229       -1.1310087983        1.2850313267
 C        -2.5656555630       -0.8318652526        0.6058197900
 O        -4.0267416053       -3.8322596840       -0.7274596764
 O        -4.7339616987       -0.1965955783        1.5451086099
 C        -5.6569764125       -2.4867451437        2.2170001609
 C        -3.4708841206       -3.6034788299        2.1043582191
 C        -1.4114031672       -0.0194721985        1.3191280301
 C        -1.4852613782        1.5824659677        1.0068320298
 C        -0.2516330168        2.3743125486        1.2600704841
 C         1.0217454748        1.6205587505        0.8805663395
 C         1.5457943793        1.2600389059       -0.5461476908
 C        -0.2633779053        3.5907653127        0.3315345575
 C        -0.4559511352        2.7505233329        2.8742363070
 O        -2.4841854962        2.1814781836        0.6301412997
 O         1.8174875016        1.3340484145        1.7707304371
 C         2.5467104645        0.1612444038       -0.3802712674
 C         2.7006454006       -0.4915051591       -1.6753265877
 C         4.1063445537       -1.1739513237       -2.0094592808
 C         5.4449280309       -0.4135072349       -1.6103134971
 C         6.8585097478       -0.8943833126       -1.8476345252
 O         1.7857666708       -0.5103126432       -2.4986152461
 O         5.3155346860        0.7301767583       -1.2431223059
 C         4.1070365008       -2.4637968779       -1.0183768195
 C         3.9979208591       -1.4696403204       -3.5053431517
 C         7.6893176577       -0.6871241024       -0.5121253144
 C         8.2334875829       -2.1384666714        0.2478456817
 C         9.6062069981       -2.5744592745        0.0084173856
 C         9.5003178795       -3.2340837195       -1.4684937413
 C        10.2205780029       -4.6517600874       -1.4850377945
 C        10.7198432708       -1.5354074853       -0.2287760439
 C        10.0560368660       -3.5512835020        1.0781422390
 O         7.3782614795       -2.7682196110        0.8824465194
 O         8.9607902149       -2.6757517453       -2.3506832339
 C        10.2781976005       -5.2247776427       -2.9173698323
 C        11.5924314789       -4.5902521953       -3.6215818482
 C        11.6979670747       -4.6651373068       -5.1533033334
 C        11.2437143024       -3.2472145253       -5.8597469646
 C        11.1460107814       -1.9598821162       -5.1062480587
 O        12.3703353857       -3.9285146117       -2.9462386779
 O        11.2842752218       -3.2667131069       -7.0214990389
 C        13.1964473208       -4.9283593172       -5.6014065209
 C        10.7577972577       -5.7345268172       -5.7455901530
 H        -7.4223662165        2.0968573960        6.1106500611
 H        -6.1542016104        0.8523998371        5.9229897052
 H        -6.4394992036        1.3079305377        7.5281746081
 H        -7.8968811368        6.6245058527        4.9186614798
 H        -6.4449415152        6.6086360478        4.2198892619
 H        -8.1837690317        5.2244295176        7.3871714078
 H        -7.4982322335        4.1034064608        8.4252207070
 H        -8.3590129757        3.5192819362        6.8009125004
 H        -5.4010217217        5.7125108332        7.9910941234
 H        -4.5295929148        5.4385137642        6.4262498366
 H        -5.8605444288        6.5199657291        6.5213325722
 H        -9.3027514149        5.7917661840        3.2949724234
 H        -8.1831078470        6.9243769155        2.5317255065
 H        -8.6999316061        1.3627452118        0.8459632530
 H        -9.0215119010        1.9720529130       -0.9279175658
 H       -10.4994176398        3.6997701586        0.1233320322
 H       -10.1394325394        4.9050976436        1.3992288973
 H       -10.0431363955        3.1627569141        1.6288203353
 H        -9.4719512330        5.6780813319       -0.6011464821
 H        -7.7914543817        6.3216121210       -0.3200732955
 H        -7.9926585612        5.0739976774       -1.4728796392
 H        -8.1609890434       -0.4043619457       -0.5416701815
 H        -6.7689687500        0.1788229505        0.1112850225
 H        -5.2092892307       -2.7701506572       -2.9200240370
 H        -5.3001703459       -1.1379114635       -2.1683658081
 H        -9.5782765814        0.0115835686       -2.7700875606
 H        -9.1738319458       -0.6271581246       -4.4960407029
 H        -8.8754743232        1.1128292804       -3.8171333667
 H        -5.6027082100       -0.1939573879       -4.4605131960
 H        -7.1654113809       -0.4620662890       -5.2860770015
 H        -6.5555927584        1.1003179314       -4.9920132994
 H        -6.7518038872       -2.2258172804       -0.2042113291
 H        -6.4381678456       -3.8875811075       -0.8034111240
 H        -2.0203862236       -1.8432949857        0.3472031969
 H        -2.7570411978       -0.4256247819       -0.3663454788
 H        -6.3049489895       -3.3373742489        2.3169742765
 H        -6.4204004738       -1.7004877397        1.9975189891
 H        -5.2195476507       -2.1163897265        3.0900599993
 H        -3.9040145757       -3.9798468392        2.9758079038
 H        -3.3119833873       -4.4563260698        1.5736392285
 H        -2.4029938359       -3.2527105974        2.2922509694
 H        -0.4614211537       -0.4408529701        1.0074962070
 H        -1.6824204359        0.0044190784        2.3442910052
 H         0.6940923225        0.9560058339       -1.1780309426
 H         1.9107876925        2.1149215984       -1.1840363149
 H        -1.1427183580        4.1812784360        0.5980276740
 H        -0.3098345784        3.4832087673       -0.6812184358
 H         0.6862765329        4.1792285773        0.5587646390
 H        -0.8754160451        3.7675468314        3.1457882648
 H        -1.0788396336        1.9686135698        3.3888967208
 H         0.5632686939        2.7342497772        3.3228961063
 H         3.4455941314        0.7178102413        0.0548299556
 H         2.3234807938       -0.5953862184        0.4152367575
 H         7.0195273024       -1.8865207906       -2.0355478046
 H         7.4694743647       -0.3725267843       -2.5843691249
 H         3.6024555271       -3.1772548864       -1.7038153660
 H         3.5753714107       -2.2296373112       -0.0641734899
 H         5.2002733332       -2.6260688242       -0.8812397894
 H         3.7865764819       -0.5447041734       -4.0115562879
 H         4.8300877019       -1.9781213044       -3.9383702950
 H         3.2780648740       -2.2709466479       -3.6797433039
 H         7.1848056490       -0.1077215362        0.2914855581
 H         8.4413596239        0.0588457115       -0.7181308872
 H        11.2064384571       -4.5065405490       -1.0996588233
 H         9.5495281362       -5.2986811770       -0.9613874343
 H        10.6985019762       -0.8624902669       -1.0420226183
 H        11.6522506079       -2.0644463433       -0.3797410590
 H        10.7985242690       -1.0642020693        0.7139541140
 H        10.4652090391       -2.9976034781        1.9280107009
 H         9.1649320807       -4.1067144479        1.2141162064
 H        10.7943944851       -4.3031126758        0.7090234316
 H        10.4985524007       -6.2019990917       -2.7253648305
 H         9.3073480386       -5.2038798617       -3.4458230930
 H        12.1051333010       -1.5594708453       -4.6745871660
 H        10.8574451943       -1.2215794004       -5.8779189353
 H        10.3186623525       -1.9838409451       -4.3127248613
 H        12.9947362639       -4.8459247892       -6.6510625993
 H        13.4946345982       -5.9040164413       -5.1253476838
 H        13.8215793622       -4.1938141807       -5.2074254111
 H         9.7387513310       -5.6575204099       -5.4196002551
 H        10.7652769303       -5.6162946400       -6.8728068001
 H        11.0396425497       -6.7932805892       -5.6616106156
 Na       -4.7246984263        1.6265772629        0.1174267693
