155

 C        -6.4677292755        1.7955745206        6.9212346491
 C        -5.7773756945        3.2259445137        6.7533482601
 C        -6.5764173520        4.5474542105        6.6831686021
 C        -7.1086301061        4.5965579916        5.0107698213
 C        -7.2830809715        5.9574706221        4.2810749725
 C        -7.8662623738        4.6402751148        7.6288815241
 C        -5.6411754024        5.7691572730        6.8659774191
 O        -4.5487107031        3.2613664481        6.8651753775
 O        -7.3497367557        3.5403393037        4.3860006384
 C        -8.1422240084        5.8282567393        3.0168212010
 C        -7.4131116899        5.1258063419        1.8004001978
 C        -8.1692467115        4.4802867932        0.5166868500
 C        -7.4321445927        3.1475631189        0.0713079628
 C        -8.3306643103        2.0162353090       -0.3277314166
 O        -6.1721806590        5.1741602326        1.6798844986
 O        -6.2541806624        3.1904064175       -0.1031380693
 C        -9.5799605477        4.2139133297        1.0187320753
 C        -8.2707267179        5.5239957507       -0.5601517416
 C        -7.7323125166        0.6854626768       -0.5008182347
 C        -6.9997720722        0.6248188487       -1.8695617696
 C        -7.5227424662       -0.3000515306       -3.0308259081
 C        -7.3575406372       -1.9643448107       -2.7422675466
 C        -6.0438141901       -2.2393513054       -1.9082057694
 C        -9.0584370421        0.0915859113       -3.2704200507
 C        -6.6887542781       -0.0903125976       -4.2993612350
 O        -5.8642093162        1.1075440454       -1.9535525142
 O        -8.1544209394       -2.8688973556       -2.9447623228
 C        -6.2620983621       -2.7674832552       -0.5775235386
 C        -4.8724715814       -3.1776810691        0.0621431792
 C        -4.6043755390       -2.7176477615        1.4805139476
 C        -3.8266374020       -1.1756638530        1.3715933328
 C        -2.3819255952       -1.0846285867        0.7634050262
 O        -4.0430233120       -3.8186727660       -0.4972507696
 O        -4.3998600488       -0.1696859037        1.7582677532
 C        -5.8942686923       -2.6491000882        2.3797784595
 C        -3.5214229658       -3.5618157988        2.0668051071
 C        -1.3843960427        0.0076407515        1.4169766320
 C        -1.5315698780        1.5195267003        0.9161678743
 C        -0.2927216460        2.3549693945        1.3886492415
 C         1.1132306440        1.4568069683        1.1407689261
 C         1.5739256744        1.1877624170       -0.3344225179
 C        -0.3187201524        3.7090550080        0.5248829238
 C        -0.2570039715        2.7624098282        2.8289356208
 O        -2.5131923102        2.0069196809        0.3890780155
 O         1.6784176470        1.1379423559        2.1495670131
 C         2.4329610346       -0.0459360297       -0.3155491024
 C         2.6193709587       -0.5161483516       -1.8313616412
 C         4.1700225691       -1.1505243132       -2.0774892026
 C         5.3431914865       -0.3383935252       -1.5970429016
 C         6.6461118376       -0.9514819474       -1.8244042152
 O         1.8116088313       -0.6454669701       -2.7232407875
 O         5.1681608244        0.8148371844       -1.2131972332
 C         4.0952232369       -2.4813448060       -1.2743211021
 C         4.3293354202       -1.6736208696       -3.4593580001
 C         7.8268995763       -0.5989119833       -0.7227010013
 C         8.2226217502       -1.8512171508       -0.0243726478
 C         9.6720443111       -2.5996755283       -0.2546380725
 C         9.6901040136       -3.5585407728       -1.5359535571
 C        10.2354175430       -5.0154312062       -1.6313400980
 C        10.8050710814       -1.6118826826       -0.3649738690
 C         9.8855849870       -3.4636300074        1.0184419779
 O         7.4977322433       -2.4368689874        0.7600079605
 O         8.9804108459       -3.1399709947       -2.4727986092
 C        10.2876481629       -5.3492905458       -3.1398320735
 C        11.3613116995       -4.6145774653       -3.8951338451
 C        11.6538214141       -4.7290133233       -5.3999677861
 C        11.3623388841       -3.2046413411       -5.9869749550
 C        11.1729192999       -2.0013190671       -5.0125959148
 O        12.1537470523       -3.9006834983       -3.2689269115
 O        11.2908359046       -2.9163885400       -7.1786288724
 C        13.2307190614       -4.9519549020       -5.5850600854
 C        10.8552259402       -5.7211995449       -6.1753512915
 H        -6.9554853478        1.6959671019        7.8129080806
 H        -7.2873839338        1.4859881104        6.2161884314
 H        -5.6181648942        1.1434680821        6.6539558612
 H        -7.6312151292        6.7983572429        4.9931015389
 H        -6.2889484292        6.2760158385        3.8594714956
 H        -8.3110673996        5.5908433167        7.6523592509
 H        -7.5222215288        4.5578890392        8.6036794054
 H        -8.5724673217        3.8523844555        7.5112820920
 H        -5.9434924263        6.4440831677        7.6709532135
 H        -4.5894526342        5.3368402010        6.9320264627
 H        -5.5238723376        6.4951540549        6.0167381307
 H        -8.7775459362        5.0728448466        3.2797238535
 H        -8.7586294978        6.6625123654        2.7837161174
 H        -9.1652597434        1.7703895425        0.2896352337
 H        -8.6521744051        2.3120677291       -1.3386472660
 H       -10.0713102842        3.6135124711        0.2690760937
 H       -10.1882196137        5.1830274516        1.2325962894
 H        -9.6756588308        3.4657548837        1.8058726487
 H        -9.2245197985        5.7477450618       -0.8886648703
 H        -7.7803078458        6.4247437613       -0.2393799955
 H        -7.6943815620        5.1616969604       -1.4119260410
 H        -8.4935635288       -0.1327725366       -0.5853761657
 H        -7.1582823131        0.2610402004        0.3456610962
 H        -5.3153773520       -2.7743294892       -2.4091887001
 H        -5.5607963186       -1.3254965574       -1.8031268680
 H        -9.7166904982        0.0293918015       -2.4230960548
 H        -9.2814731901       -0.6876647065       -3.8923975402
 H        -9.1603803023        1.0336047821       -3.7581155579
 H        -5.5611051487       -0.1866899498       -4.0698730879
 H        -6.8829921886       -0.8645542815       -5.0923981171
 H        -6.8600067405        0.7415548708       -4.8873389655
 H        -6.6063272421       -1.9124962460        0.0740018658
 H        -6.8145193674       -3.7085683537       -0.4716427853
 H        -1.8648548017       -1.9900394863        0.6750206677
 H        -2.4805600982       -0.7416755550       -0.3506939303
 H        -6.5620280904       -3.5144031022        2.0932287855
 H        -6.6220093045       -1.9174503354        2.1199059492
 H        -5.7453698374       -2.4908227837        3.4504474555
 H        -3.8485986073       -4.0070966447        3.1081227617
 H        -3.0855052179       -4.4592323807        1.5271701365
 H        -2.6385911737       -2.9784821246        2.1871107585
 H        -0.4628301846       -0.3259237887        0.9667879927
 H        -1.4080008304        0.1257457328        2.5217666436
 H         0.7035819734        0.9955616347       -1.0011476368
 H         2.0188095753        2.0662095239       -0.7679381434
 H        -1.2647659995        4.2386978272        0.5862148050
 H        -0.2796207558        3.4388939991       -0.6073622774
 H         0.4664928613        4.3655975337        0.7842169463
 H         0.6173909436        3.3513124347        2.9391452619
 H        -1.0796486904        3.4223299109        3.0992291396
 H        -0.0920795239        1.9428078256        3.5242642317
 H         3.2263239978        0.1131340318        0.3616307053
 H         1.8953490245       -0.8895632049        0.1257329362
 H         6.6782560984       -2.0964955785       -1.8081623844
 H         7.0445136689       -0.6668849437       -2.7927800629
 H         3.1948070544       -2.8583912132       -1.4808552279
 H         4.2292592490       -2.2101169994       -0.1851134059
 H         4.9517224137       -2.9634293036       -1.5652152942
 H         3.9761420927       -0.9543764555       -4.2308461541
 H         5.3714698291       -2.0002247207       -3.6637785331
 H         3.7307883117       -2.5918081040       -3.6578669789
 H         7.3868687639        0.0688639687        0.0015184876
 H         8.7470792268        0.0050290549       -0.9657723334
 H        11.3153964022       -4.7354592865       -1.3191686638
 H         9.6472832735       -5.7368974398       -0.9985943732
 H        11.3578201978       -1.9961006641       -1.2457158848
 H        11.6927713111       -1.5671762461        0.4345410452
 H        10.4573735875       -0.5627954012       -0.6765969766
 H         9.5687261881       -2.7206702709        1.7418660127
 H         9.1925278906       -4.3199831883        1.0854885195
 H        10.8311031037       -3.8530844520        1.0965250929
 H        10.2967675774       -6.5652511393       -3.2576631800
 H         9.3869237782       -5.0218697456       -3.6344617246
 H        12.1851158229       -1.8698946498       -4.6986862001
 H        11.0279735323       -1.0424614793       -5.4735793532
 H        10.5116614709       -2.1799469478       -4.2238634326
 H        13.4860840803       -4.4977657828       -6.5348729807
 H        13.5374763522       -5.9654073561       -5.4621715968
 H        13.6058876351       -4.4940078229       -4.6276152913
 H         9.8126663125       -5.4513227470       -5.9359424647
 H        11.0482066793       -5.7772952454       -7.2316083629
 H        10.9261002283       -6.7636157994       -5.8732470563
 Na       -4.6219820324        1.4933775315       -0.0056019537
