155

 C        -6.5441750171        2.3069658353        7.8175642025
 C        -5.8831322805        3.5718196924        7.1577927354
 C        -6.6995035776        4.9578682209        6.6986403030
 C        -6.9572488876        4.6703831350        5.2306975191
 C        -6.9245845392        5.8265264085        4.1062084697
 C        -8.0410524902        5.0718309067        7.4228984971
 C        -5.7781043403        6.1296485646        7.0595845063
 O        -4.7093292593        3.5939864649        7.1759897333
 O        -7.4082226549        3.5570311479        4.9720839111
 C        -8.0055842959        5.5002016792        3.0223532106
 C        -7.3439256687        5.3026101598        1.7318494913
 C        -8.0899525387        4.7952259156        0.2464347871
 C        -7.3290020188        3.4780059646       -0.0029980679
 C        -8.2493709872        2.2719745272       -0.2712469099
 O        -6.1700346012        5.4928995219        1.5488070780
 O        -6.2232964401        3.2689181805        0.3750153139
 C        -9.6296598321        4.9294170000        0.4504447310
 C        -7.6085636256        5.9394997935       -0.8270359994
 C        -7.6098703939        0.7898636121       -0.3324868308
 C        -6.8996880858        0.1890292281       -1.6532323208
 C        -7.6235151567       -0.4816600971       -2.7554352610
 C        -7.3914033938       -2.1267951501       -2.6166131676
 C        -6.1594744845       -2.7280896266       -1.7146665930
 C        -9.0622706059       -0.2163783763       -2.7813699932
 C        -7.1483031624        0.1228063852       -4.0933081377
 O        -5.7333120162        0.4662618377       -1.8472115960
 O        -8.1868942041       -2.8964218595       -3.0973593347
 C        -6.1250094159       -2.4091971179       -0.2626478744
 C        -4.7782560345       -2.9179839051        0.4175301592
 C        -4.4018545753       -2.5068643712        1.9908833067
 C        -3.9090571809       -1.1728549149        1.4175799216
 C        -2.4928726706       -1.2226746634        0.9914463428
 O        -3.9229602711       -3.6147921143       -0.0937777090
 O        -4.7488619676       -0.2666442235        1.2401960802
 C        -5.6288406624       -2.4744698892        2.9462728189
 C        -3.3355370333       -3.5547695479        2.4288107332
 C        -1.7850681830       -0.0856708923        1.7911200577
 C        -1.4911302510        1.1361746574        0.8622989682
 C        -0.3261984251        2.0226771046        1.3093230298
 C         1.0506711042        1.1823181011        1.1703408137
 C         1.6268787365        0.8825192098       -0.1703010768
 C        -0.2248505103        3.3075424216        0.4562277917
 C        -0.4689514981        2.3568161753        2.8941748241
 O        -2.1679148267        1.5327412745       -0.0619874660
 O         1.4903884718        0.6560135135        2.2091329501
 C         2.2916854403       -0.5383232904       -0.3011549338
 C         2.7574705519       -0.7047475504       -1.7361142450
 C         4.0497504567       -1.3616686989       -2.0756026695
 C         5.4477472767       -0.4325826906       -1.7752464387
 C         6.7159640729       -0.9470733102       -2.4230077331
 O         2.0971224864       -0.0833067202       -2.4784408731
 O         5.4706618374        0.4860466390       -0.9655990881
 C         4.1439522714       -2.7925987796       -1.1496702737
 C         4.0234919365       -1.7119270938       -3.5935873004
 C         7.9436379247       -0.8117306685       -1.4586755507
 C         8.2713570430       -1.8485464949       -0.3906797812
 C         9.5446684998       -2.7602912072       -0.7218813729
 C         9.3374896179       -3.6280979488       -1.9777363879
 C         9.8809467412       -5.0554800159       -2.0174428972
 C        10.9373511340       -1.9798485337       -1.0804185577
 C         9.7103851567       -3.7522656284        0.6162519293
 O         7.5913176539       -2.1404036875        0.5694647386
 O         8.6178873048       -3.2171462229       -2.8855940656
 C        10.3407965388       -5.3197097203       -3.3734250243
 C        11.4423052984       -4.4689674329       -3.9501567613
 C        11.6213630275       -4.4819235334       -5.4861697654
 C        11.3819873949       -2.9935219482       -6.1660850960
 C        11.1891578037       -1.7456439609       -5.3449855012
 O        12.3820803183       -3.9160574750       -3.3588191503
 O        11.3649175996       -2.9522806170       -7.3275130006
 C        13.1373842267       -4.7214120875       -5.8178012963
 C        10.6346339819       -5.5374220196       -6.0529425148
 H        -6.6035804579        1.3693689856        7.3554634935
 H        -5.9133476203        2.0627596951        8.6625063339
 H        -7.6069699401        2.5732981549        8.0699749456
 H        -7.2284076310        6.7832741544        4.5060304510
 H        -5.9678766953        5.7848146486        3.6818028842
 H        -8.4856064137        5.9693821588        6.9579320517
 H        -8.0069449599        5.1441413388        8.4771874706
 H        -8.7579111118        4.2249466843        7.2694831630
 H        -6.2876452462        7.1074709171        7.1596967662
 H        -4.9070446147        5.9533960632        7.7583558607
 H        -5.1867642562        6.2047395388        6.1838408590
 H        -8.3980275710        4.6084276269        3.4021554452
 H        -8.8353008276        6.1950296366        3.0546874793
 H        -9.0456070022        2.1619228989        0.4904767302
 H        -8.8472734188        2.3824678731       -1.1030785300
 H       -10.3636362096        4.7532381987       -0.3452480522
 H        -9.8476687658        6.0004985939        0.7459720840
 H        -9.8721037956        4.2207817322        1.3551985798
 H        -7.2513512523        5.6966459189       -1.8074866662
 H        -8.5189170900        6.5330151316       -0.8988725347
 H        -6.7955104705        6.5276990264       -0.3273208646
 H        -8.4525578997        0.1131219862       -0.2135323093
 H        -6.9540200456        0.4936599093        0.4596754471
 H        -6.2010367305       -3.7444453452       -1.8796815091
 H        -5.2962097374       -2.4167768582       -2.1448142290
 H        -9.5047508134       -0.5942833654       -1.8509047404
 H        -9.4768069482       -0.6609252891       -3.5934361413
 H        -9.1389932804        0.8466908207       -2.9118327680
 H        -6.1132219693       -0.0347453659       -4.3764374704
 H        -7.5849398247       -0.1925664667       -5.0500793765
 H        -7.4870409479        1.0868150067       -3.9908756716
 H        -6.2928166688       -1.3653058410       -0.0015023931
 H        -6.8779866521       -3.0264022024        0.2567658125
 H        -2.1539342829       -2.2293692480        1.1035277781
 H        -2.4065369078       -0.9972660745       -0.1714091940
 H        -5.9440163493       -3.4711615162        3.3560672395
 H        -6.5269718694       -2.2012562556        2.3959970081
 H        -5.5535251596       -1.9418477749        3.8148690743
 H        -3.5937006411       -4.6631663284        2.2624839571
 H        -2.2638793474       -3.4522796734        2.3512245534
 H        -3.4092822904       -3.5851326386        3.6019832892
 H        -0.8024194256       -0.3441528652        2.1097266151
 H        -2.3902889228        0.1875585775        2.6691864307
 H         0.8747459745        0.9881960635       -0.9862891693
 H         2.3879693465        1.6344128279       -0.4365175596
 H        -1.0574434835        3.9315655875        0.7026144830
 H        -0.2677898291        3.1102191602       -0.6394099559
 H         0.5892670637        3.9467336090        0.8046204349
 H        -1.1336473050        1.7343890983        3.4717042003
 H         0.5935248585        2.3358987630        3.2785757381
 H        -0.8893295180        3.3699750187        2.9571370555
 H         3.1505325631       -0.6907921114        0.3707293365
 H         1.7046370788       -1.4469998117       -0.0852264491
 H         6.4738408072       -2.0173832294       -2.7147893056
 H         6.9743094472       -0.3968347406       -3.2924511228
 H         3.1821498963       -3.0038146087       -1.1431430654
 H         4.4857960900       -2.5326205918       -0.1084268585
 H         4.7809393609       -3.4392966464       -1.6331943822
 H         4.2101965950       -0.9269404538       -4.2797721164
 H         4.6445470621       -2.5559187442       -3.8421704594
 H         2.9797180186       -1.8009760692       -3.8093413490
 H         7.6748624974        0.0608885069       -0.8486037278
 H         8.9783071247       -0.5245429219       -1.8803561351
 H        10.8896246598       -4.8336928303       -1.4289355239
 H         9.0596037626       -5.6646214268       -1.5406190760
 H        11.2099730360       -1.1731650741       -0.3939281306
 H        10.9220520046       -1.4244796135       -2.1466306269
 H        11.6256825837       -2.8119267728       -0.9409794204
 H         9.9124516807       -3.0163466272        1.3825188781
 H         8.7459619608       -4.1326569944        0.9306999025
 H        10.3953535703       -4.4991599300        0.5297596055
 H        10.6346696305       -6.4695346674       -3.5604946571
 H         9.5541559009       -5.1602283734       -4.0750577399
 H        11.0614420518       -2.0187796199       -4.2767723602
 H        12.0925132320       -1.1243591457       -5.1992971337
 H        10.3438460625       -1.1884697602       -5.7320248060
 H        13.1254217578       -4.6214666143       -6.8628886513
 H        13.5086306249       -5.7142784603       -5.6168471620
 H        13.5913907640       -3.9267017207       -5.1746767355
 H         9.5724858527       -5.4070246290       -5.8140152055
 H        10.6443870782       -5.4829681835       -7.1614408981
 H        10.9393915998       -6.5907553837       -5.7844309783
 Na       -4.5368801514        1.6058269358       -0.0068843066
