155

 C        -6.6558869587        2.7582667549        8.2050678202
 C        -5.8422989674        3.7785332459        7.4586666081
 C        -6.6547724498        4.9849887502        6.8966892544
 C        -7.1990046822        4.6161213744        5.2622661079
 C        -7.1620145179        5.7671715881        4.2445820427
 C        -8.0894441515        5.2743855121        7.7283729846
 C        -5.8235710968        6.1909986998        6.9681178722
 O        -4.5952030107        3.7628170778        7.4225014562
 O        -7.4664965389        3.4554841104        4.9583311081
 C        -7.9577216836        5.4963099391        2.8889784678
 C        -7.0859759687        5.5510646264        1.5749727383
 C        -7.8644216396        4.8281154962        0.1796070586
 C        -7.2709870785        3.4449457502        0.0698378077
 C        -8.0649907419        2.3754689950       -0.4695282889
 O        -5.9188934735        5.8367294016        1.5373859184
 O        -6.0244867368        3.2077944648        0.2750209548
 C        -9.3930353553        4.8605408595        0.1628125511
 C        -7.3122236727        5.6305789937       -0.9904138501
 C        -7.6116699558        0.9759609366       -0.1474725360
 C        -6.9329193875        0.2534621439       -1.3787252615
 C        -7.6496325517       -0.4938405975       -2.4490154830
 C        -7.3653159491       -2.0713239429       -2.3761696420
 C        -6.1128905754       -2.4890211195       -1.7329369378
 C        -9.1714221257       -0.4359899109       -2.3225301253
 C        -7.1300206505       -0.2709837726       -3.8791276612
 O        -5.6864315421        0.2262752106       -1.4626304579
 O        -8.1498244048       -2.7888512464       -2.9634827633
 C        -6.2985370679       -2.5651682271       -0.1682116886
 C        -5.0376412235       -3.2732800502        0.3854997644
 C        -4.6436699651       -2.6883961044        1.9068249830
 C        -4.1198726755       -1.2983938299        1.3973217050
 C        -2.5482586510       -1.0048258771        0.9821599334
 O        -4.1854630295       -3.7629298056       -0.2676523382
 O        -4.8228743979       -0.3146133988        1.4791198298
 C        -5.8782684107       -2.4578927011        2.8174502077
 C        -3.5378888198       -3.3976080084        2.7310748504
 C        -1.8053319878       -0.0457031217        1.8638669202
 C        -1.4605368009        1.2032107614        0.9637589757
 C        -0.2409902086        2.0392255632        1.4462444772
 C         0.9843685189        0.8934096968        1.3965692000
 C         1.5076732813        0.8357749839       -0.0408579446
 C         0.0035826155        3.2633512826        0.4137164386
 C        -0.2950402509        2.5517228355        2.8269549606
 O        -2.0504591435        1.5536673578       -0.0880993675
 O         1.3107396997        0.3412581486        2.4048622002
 C         2.5261382067       -0.3269955254       -0.3363128903
 C         3.0129795438       -0.4710420032       -1.7062868181
 C         4.1393506982       -1.5837898191       -2.1564549510
 C         5.4580405801       -0.7146409006       -1.7151011303
 C         6.7186224149       -1.1065483404       -2.5774836985
 O         2.3459699019        0.1349184966       -2.5592425364
 O         5.3696972602        0.0509503349       -0.8086351699
 C         4.2118628931       -2.8308751716       -1.2365058281
 C         4.0171138093       -1.9165828890       -3.6269440253
 C         8.0167548799       -0.6443230896       -1.7904800271
 C         8.2681618082       -1.7708408561       -0.6581525058
 C         9.4674437353       -2.8140462037       -0.7593177735
 C         9.1776204134       -3.7328726047       -2.1220094771
 C        10.0090412890       -5.1372729499       -2.0977743619
 C        10.7769084836       -2.0380442895       -1.0910365850
 C         9.5733704825       -3.6079066812        0.4751423884
 O         7.4340126442       -1.7921760530        0.2393608623
 O         8.5135848900       -3.3911384862       -3.0580321217
 C        10.2501134006       -5.4251502447       -3.6044915695
 C        11.4724598294       -4.5300816672       -4.0563351288
 C        11.7253971835       -4.4957399591       -5.6846124350
 C        11.4282744326       -2.9382419365       -6.3070308841
 C        11.1640718009       -1.7706091297       -5.3525884280
 O        12.1003397871       -3.9056043596       -3.2382327276
 O        11.2151396230       -2.8218933134       -7.5608408533
 C        13.2127622762       -4.7242086958       -5.9619116335
 C        10.8289609520       -5.4152452188       -6.5043604659
 H        -7.7206071708        2.6553566810        7.8616194667
 H        -6.3054248413        1.7199745341        7.9939742591
 H        -6.8387369604        2.9380077941        9.2505507034
 H        -7.5258608513        6.7267598084        4.6816594415
 H        -6.0345436282        5.6743053998        3.9544064493
 H        -8.5998815125        6.1155042784        7.3513596450
 H        -7.9239411189        5.3816406669        8.7838970146
 H        -8.7737311289        4.5080059085        7.6945009927
 H        -6.1333508347        6.9563559868        6.2505950650
 H        -5.9530839869        6.6574628367        7.9498742547
 H        -4.6721973779        5.9989411939        6.9284487743
 H        -8.2162782066        4.4035171270        3.0203658949
 H        -8.9217718952        6.0090115188        2.9689662952
 H        -9.1311161586        2.3763975709       -0.1558105588
 H        -8.2724592645        2.6923073956       -1.5871361954
 H        -9.6064701397        4.7197981928       -0.9285154143
 H        -9.7048103245        5.9040880402        0.2468554616
 H        -9.9919818286        4.2706237859        0.7723161383
 H        -6.9629715538        4.8670671716       -1.6713205897
 H        -8.0783288669        6.1525583683       -1.5235285460
 H        -6.4433029118        6.1503732877       -0.7259146400
 H        -8.3920208844        0.3047228060        0.2891418278
 H        -6.7751112103        1.0191418860        0.5982993454
 H        -6.0567940128       -3.5317598579       -2.2442417534
 H        -5.1605513626       -1.8215343873       -1.9637927464
 H        -9.4437160346       -0.8623298982       -1.3998666281
 H        -9.6726471236       -0.8937507724       -3.2083889867
 H        -9.4178656234        0.6275299929       -2.4562596078
 H        -6.0687292292       -0.4166566680       -4.0756917176
 H        -7.5295505835       -1.0277829260       -4.5540684815
 H        -7.4983630105        0.6944927057       -4.3118699187
 H        -6.4383945453       -1.5111640528        0.2534511893
 H        -7.2210640541       -3.1044263533        0.1261544704
 H        -1.9052120611       -1.9056145418        1.0370765431
 H        -2.5188817509       -0.7038007483       -0.0030032377
 H        -5.9727690059       -3.3551659278        3.4028267902
 H        -6.8886126577       -2.2007266125        2.5251293125
 H        -5.5478151474       -1.9151291728        3.7953196435
 H        -3.5969576847       -4.4519971993        2.5103177068
 H        -2.4955774742       -3.1625315045        2.5028653358
 H        -3.6615351789       -3.3981181980        3.7059429678
 H        -0.8626016089       -0.5182238189        2.3145233754
 H        -2.3653747031        0.3429495617        2.7586468915
 H         0.7246527863        0.9554488927       -0.7799326886
 H         2.1827913451        1.6826059879       -0.1395526995
 H        -0.7691371237        4.0442525971        0.5584033742
 H         0.1522584522        2.9150704707       -0.6190070206
 H         0.8440211350        3.8101829445        0.7681634244
 H        -1.2346261063        2.1387307757        3.2277816747
 H         0.5267212577        2.1820531932        3.3718065312
 H        -0.2930631624        3.6664404527        2.8043535566
 H         3.4031741266       -0.2552875089        0.3094354827
 H         2.1975079433       -1.3950427392       -0.2679095554
 H         6.8540834450       -2.1615443222       -2.7260206198
 H         6.7718508998       -0.6201665076       -3.6118976426
 H         3.4206928980       -3.5622198630       -1.5778242110
 H         4.0238106821       -2.3630454201       -0.2726882552
 H         5.2652753085       -3.2137398445       -1.4201617617
 H         3.5487849167       -0.9525336841       -3.9989487141
 H         4.9639281642       -2.0327109211       -4.1825037197
 H         3.1936234322       -2.5881645495       -3.8805780351
 H         8.0123650120        0.3265331487       -1.2352445321
 H         8.8227025178       -0.6754056241       -2.4342877483
 H        10.8763204077       -4.9788182091       -1.6026417228
 H         9.3678905631       -5.8874688858       -1.7043662022
 H        10.4451210732       -1.0973008002       -1.5636161021
 H        11.2851693576       -2.5102087774       -1.9044234191
 H        11.3266238700       -1.7649861401       -0.1687189821
 H         9.4448040120       -2.9507334964        1.3431365053
 H         8.7335542131       -4.3312691361        0.4344097360
 H        10.6274388677       -4.0706228533        0.5379241658
 H        10.5561380380       -6.4086081295       -3.7309776634
 H         9.3436535923       -5.3963820554       -4.2362099865
 H        10.3319334673       -1.9457390451       -4.6786921163
 H        11.9706168104       -1.5655896546       -4.6714198287
 H        11.0231332116       -0.8804177367       -5.9500789036
 H        13.2545438678       -4.6613261807       -7.0864426170
 H        13.4373976414       -5.7657049862       -5.8125278449
 H        13.7633466575       -3.9949643751       -5.4270258029
 H         9.8717386866       -4.9023322293       -6.7129130806
 H        11.2006616296       -5.3595342340       -7.5111109081
 H        10.6838035275       -6.4509838578       -6.2205364760
 Na       -4.4752716665        1.7478855564       -0.1123696955
