155

 C        -7.3647019511        4.2688990704        8.0149141583
 C        -6.5971614041        5.4772875576        7.2880359318
 C        -7.3518954145        6.5961699718        6.4732999623
 C        -7.2725931236        5.8736263936        5.0223471123
 C        -5.9887770845        6.3248408531        4.3200529070
 C        -8.8767492217        6.7204188496        6.8843240406
 C        -6.6506121657        8.0792543199        6.6349819798
 O        -5.4143878469        5.5805668515        7.3157150223
 O        -8.0270996333        5.0469915869        4.5779538906
 C        -5.7899101579        5.4169395900        3.1256683940
 C        -6.9085397733        5.6475916325        2.0469592602
 C        -6.4776184001        5.3361255442        0.6364166678
 C        -6.5307615365        3.7975380046        0.3538569926
 C        -7.4266705702        3.0792702805       -0.7308854851
 O        -8.0433462138        5.7999471070        2.2918050228
 O        -5.9305158149        3.1330156650        1.1183654460
 C        -7.1633504327        6.2398221503       -0.3833056646
 C        -4.9077118299        5.5669177056        0.2516776632
 C        -8.2039766727        1.7723141860       -0.1956355644
 C        -7.2626618408        0.6415588430       -0.7292952443
 C        -7.9499813064       -0.5334976301       -1.4118662774
 C        -7.7149019713       -1.5617505009       -0.2005155401
 C        -6.3852448994       -2.2042344519       -0.0501611143
 C        -9.4479159979       -0.3602744839       -1.6251142070
 C        -7.1509341978       -0.7879205667       -2.7126888651
 O        -5.9836839272        0.7607618709       -0.6056915471
 O        -8.4784562382       -1.5608981736        0.7154294199
 C        -6.3246421990       -3.6408765350        0.4733062826
 C        -5.1615220003       -3.8674851936        1.5331666643
 C        -4.8943580347       -3.0459005809        2.7075919538
 C        -4.1339642410       -1.7942337463        2.3312634016
 C        -2.8631351512       -1.6880141521        1.5263806278
 O        -4.5611464421       -4.9236073034        1.4164936747
 O        -4.6161937955       -0.6957683461        2.6290349230
 C        -6.0795949904       -2.7365948927        3.7210874895
 C        -3.8360138043       -3.8792408937        3.6437745718
 C        -1.7342689391       -0.7727766469        2.1124801552
 C        -1.4159682407        0.6774264004        1.6089221079
 C         0.0968155887        1.1586120280        1.7385004449
 C         0.8921018311        0.1866872594        0.7522152873
 C         2.1412923503        0.7865842605        0.2356378807
 C         0.1460025512        2.6580304623        1.4117562438
 C         0.6105915355        0.8475699065        3.1856430552
 O        -2.3067499258        1.5121915537        1.1452322490
 O         0.5145033768       -0.9423431530        0.5955446382
 C         3.1611049984       -0.3576681410       -0.1051677669
 C         2.8910718861       -0.6680439869       -1.5787435034
 C         3.9326733243       -1.6024257551       -2.4219132813
 C         5.2980793973       -0.8026029360       -2.5418758007
 C         6.5301585306       -1.3561410576       -3.2638161395
 O         2.0147171697       -0.2006906548       -2.2405736592
 O         5.3994015812        0.2251901697       -1.9365012368
 C         4.1596044509       -2.9166515448       -1.5400160302
 C         3.1945940788       -1.9166972100       -3.7855150454
 C         7.8876144679       -1.6666179415       -2.5243534938
 C         7.9835667199       -2.9109110766       -1.7478238921
 C         9.3752348363       -3.6261356491       -1.9247675336
 C         9.3973236549       -4.0908448915       -3.4382997240
 C        10.3481012097       -5.1854816330       -3.7542799871
 C        10.6335572238       -2.6293598289       -1.6532151596
 C         9.3821944833       -4.8151539327       -0.9388912435
 O         7.0999189248       -3.4391528852       -1.0500636082
 O         8.5842322615       -3.8139523270       -4.2612155554
 C        10.6521655265       -5.3469164467       -5.3364567790
 C        11.8625166009       -4.5017678446       -5.5946987766
 C        12.1509597953       -3.9982747422       -7.0660773634
 C        11.0568416077       -2.9409049692       -7.4378002219
 C        11.4633609853       -1.6149126053       -7.9762508841
 O        12.5711365026       -4.1246497317       -4.7384318365
 O         9.9048958478       -3.1585350409       -7.2881221469
 C        13.6832787923       -3.4555093990       -7.1409961603
 C        12.0532275622       -5.0834680413       -8.1477052843
 H        -7.4971277342        4.4502153309        9.0329070167
 H        -8.2390587396        4.0566906913        7.4858223848
 H        -6.7454236622        3.3253344295        8.1479427580
 H        -6.0330258031        7.3963030547        4.0412001878
 H        -5.2410563663        6.1728008573        5.2009065682
 H        -9.2718100657        7.6410225818        6.3354928366
 H        -9.0176247283        6.8364863347        7.9931502776
 H        -9.4137111631        5.7599691404        6.6985976339
 H        -7.4211955733        8.7454088303        6.3518666916
 H        -6.6270343920        8.2345711902        7.6903292934
 H        -5.6778530587        8.2326326655        6.1419995785
 H        -4.7715173850        5.3868787169        2.8175585506
 H        -6.0883996840        4.3380724396        3.4536247913
 H        -8.2285742642        3.7640285675       -1.0510287776
 H        -6.7530231454        2.7005994751       -1.6523235357
 H        -7.2588155775        7.2502084959        0.0298431265
 H        -8.1545401597        5.9727555174       -0.8800782265
 H        -6.5046616664        6.2867594571       -1.2595311032
 H        -4.6546007763        6.6196206369        0.4950890644
 H        -4.3554326145        4.9413012930        0.9710475226
 H        -4.7778797243        5.5368164332       -0.8173594011
 H        -9.2339622381        1.5618716790       -0.4865231451
 H        -8.2330428971        1.8572690526        0.9432857603
 H        -5.7998219444       -2.2757403388       -1.0598692963
 H        -5.7171648826       -1.4795361177        0.5600625567
 H       -10.1000377562       -0.5205951321       -0.7630828335
 H        -9.8891025365       -0.9764910136       -2.2831033518
 H        -9.6128052536        0.5695777103       -2.1160099563
 H        -6.1601704280       -0.3960955812       -2.5805027269
 H        -7.0102194318       -1.8530499362       -2.9546506903
 H        -7.7536869480       -0.2725118421       -3.4009877630
 H        -7.2199460791       -3.9542848080        0.9916155700
 H        -6.2672368298       -4.3724914095       -0.3608764198
 H        -2.3769427201       -2.6743496165        1.3991236337
 H        -3.1873733504       -1.4996229243        0.5353445283
 H        -5.6358180844       -2.5523295693        4.7107761050
 H        -6.6661344854       -3.6088294691        3.8338696294
 H        -6.7417565909       -1.9269343183        3.3497179826
 H        -3.6872333042       -4.7660728440        3.1713896176
 H        -2.9073021195       -3.4312465928        3.5817568735
 H        -4.1751043140       -3.9371517805        4.7238319046
 H        -0.9391977896       -1.5181422957        2.1451081387
 H        -2.1143696546       -0.6179167852        3.1613363404
 H         2.0465843319        1.4667326023       -0.6044049112
 H         2.4485394668        1.4651803537        1.0813870844
 H        -0.7805591404        3.1265784478        1.7898628941
 H         0.2538578810        2.8068540609        0.2850939121
 H         0.9142304780        3.2618477430        1.8100938212
 H        -0.0875757552        0.1987634434        3.7632202241
 H         1.5634753052        0.4027343467        3.2686014244
 H         0.4729540999        1.8810646773        3.5720518792
 H         4.1981524165        0.0477402822       -0.1751072521
 H         3.1199670033       -1.2836533848        0.4971394042
 H         6.2109943229       -2.2516694068       -3.8140550881
 H         6.7672834680       -0.5706822963       -4.0845368026
 H         3.3006448926       -3.4711975718       -1.1831563561
 H         4.8006289470       -2.5563809970       -0.6994830943
 H         4.7182325884       -3.6946222270       -2.1316454084
 H         3.3124224533       -1.0112782783       -4.4245994988
 H         3.7598463551       -2.6895686851       -4.2904189873
 H         2.1176227688       -2.0913650239       -3.6043046668
 H         8.2829155333       -0.7644070573       -1.9831043981
 H         8.5029046870       -1.7454137958       -3.4096822299
 H        11.1989971138       -5.0614192776       -3.0708296753
 H         9.8422986861       -6.0918436397       -3.3045403776
 H        11.3337214507       -3.0482681995       -0.8568749569
 H        10.1755086748       -1.6001872098       -1.3314448966
 H        11.1925060747       -2.2486614216       -2.4479153342
 H         9.1532561317       -4.7407019271        0.0835588966
 H         8.7751554683       -5.6589526483       -1.2797978644
 H        10.3438252474       -5.1946413550       -0.9137068328
 H        10.8763478162       -6.4358278132       -5.5897116748
 H         9.9261793846       -4.9657336803       -5.9219170955
 H        12.2718561428       -1.1573692286       -7.3004238478
 H        12.0600823746       -1.5045823876       -8.9452807433
 H        10.6116933925       -0.9315799002       -8.0532537437
 H        13.8463223924       -3.0978583292       -8.1860386712
 H        14.3839643649       -4.2852106080       -7.1426633012
 H        13.8732029308       -2.6525628086       -6.4567542942
 H        12.2411516688       -4.7045465223       -9.1513013987
 H        12.8615650156       -5.7690416987       -7.9859076231
 H        11.1210682968       -5.6147291852       -8.0565238956
 Na       -4.7887487648        1.0627880692        1.2117508427
