155

 C        -7.3174960260        5.6824887862        8.1717742846
 C        -7.3008646927        7.0336340574        7.5895069401
 C        -8.1800347274        7.1994603582        6.3719012871
 C        -7.6592927272        6.3089356105        5.1568698096
 C        -7.0556572555        6.8075575903        3.8071327668
 C        -9.6333226856        6.7599971200        6.6669411676
 C        -8.1929042380        8.6719494870        6.0802466629
 O        -6.5317762650        7.9233432620        7.9403430615
 O        -7.9267628584        5.1376773765        5.2406366065
 C        -6.2730476621        5.7534148440        2.9637053236
 C        -6.2057557481        6.0931487264        1.4681945313
 C        -5.5644385560        4.9647159316        0.5586497255
 C        -5.7369519174        3.6443987990        1.1806085003
 C        -7.0209727842        2.8769975642        1.0324257353
 O        -6.3700117932        7.1968313447        0.9781303393
 O        -4.8653190031        3.0927226064        2.0112703005
 C        -6.2496289856        5.0163260739       -0.7666902942
 C        -4.1211268286        5.4079744677        0.5707582848
 C        -7.0221659944        1.4482581279        1.6423876668
 C        -6.6974282625        0.5506718183        0.3357399749
 C        -7.8425703043       -0.0131000727       -0.3476460617
 C        -8.3331378009       -1.2405936294        0.6695082564
 C        -7.4307242750       -2.4299319732        0.9088898612
 C        -9.0021593195        0.9915790031       -0.4769195786
 C        -7.4842680693       -0.5967586162       -1.7842366355
 O        -5.5352088618        0.4441310091        0.0351268056
 O        -9.2798513222       -1.0587804751        1.3700402080
 C        -7.1152320797       -2.3853771715        2.4028261938
 C        -6.1242109315       -3.4811558363        2.6782899246
 C        -4.7983587585       -2.9694506408        3.5455288320
 C        -4.0713101766       -1.8323564779        2.8049064055
 C        -3.1178394699       -2.1793823915        1.6163530539
 O        -6.1805523471       -4.6457690785        2.4120033164
 O        -4.2754999217       -0.6813465929        3.1854153181
 C        -5.1106264968       -2.5043869807        4.9421085560
 C        -3.7740163946       -4.1608630340        3.7758651344
 C        -1.6357987061       -1.9082753403        1.7007891009
 C        -1.3389517201       -0.2245900219        1.5824882263
 C        -0.0181792057        0.3699940589        1.9268724930
 C         1.0942699157       -0.4119157279        0.9431147321
 C         2.4360055053        0.2633662662        0.8521264192
 C         0.0336808324        1.9467280761        1.6612038496
 C         0.5113386141       -0.0031211166        3.3310735779
 O        -2.1293675417        0.4283334994        0.8681190562
 O         0.7283948073       -1.4211662824        0.4183659652
 C         3.3599006491       -0.6973016490        0.0620991751
 C         3.2332801831       -0.3652283085       -1.4295275079
 C         3.5796680768       -1.4208867825       -2.5107128522
 C         5.2029313844       -1.5107577687       -2.5160815956
 C         5.7326316519       -2.1126335145       -3.8807095997
 O         2.8472005927        0.6983916588       -1.7875746260
 O         5.8136217967       -1.1871536454       -1.5155262274
 C         3.1033151876       -2.8465217860       -2.0348919187
 C         2.9457758052       -1.1070901068       -3.8168518086
 C         7.2090512839       -2.3040746315       -3.7036690996
 C         7.5346733366       -3.6897662980       -3.0298507812
 C         9.0854634314       -4.1883457202       -2.9449505872
 C         9.5299234267       -4.6163191365       -4.3646022931
 C        11.0638409608       -5.1420033319       -4.6157082812
 C        10.1171751241       -3.0464486485       -2.4041171146
 C         9.2595107141       -5.4066071332       -2.0142055666
 O         6.6239367827       -4.4580555329       -2.7522302371
 O         8.7024070666       -4.8087828044       -5.2364210277
 C        11.2957738170       -5.0629186630       -6.1555852892
 C        12.0029465863       -3.7389972320       -6.4720077431
 C        12.4760840934       -3.6527407502       -8.0351622590
 C        11.3028671402       -3.0689931180       -8.7989835579
 C        11.4660496237       -2.4853112401      -10.1764839124
 O        12.2971022930       -2.8518649983       -5.7438954989
 O        10.2166756616       -3.1443684349       -8.3225185951
 C        13.6764323217       -2.6594003285       -8.2079637179
 C        12.7816167136       -5.0555056984       -8.6354782770
 H        -8.2100097727        5.1421008469        7.9120022837
 H        -6.3852314236        5.2824404819        7.8408371609
 H        -7.3513355112        5.6479082559        9.1973841403
 H        -7.9827771225        7.3220159474        3.2833244687
 H        -6.2565599566        7.4979318097        4.0951643050
 H       -10.3675338469        7.0830521228        5.9374102332
 H        -9.8411417747        7.3634758696        7.5502660852
 H        -9.7989108832        5.8265090621        7.1524322370
 H        -7.7695961718        9.2171609034        6.8987815980
 H        -7.7625741492        8.9942185353        5.1397149951
 H        -9.2626695331        8.9625543616        5.9349133453
 H        -5.3643285402        5.6810179189        3.5251154086
 H        -6.6797103968        4.7029542674        3.0871601113
 H        -7.9305361640        3.5325404680        1.2202472465
 H        -7.2186399146        2.6512600763       -0.0552012888
 H        -5.8577035200        5.8730098702       -1.2250602328
 H        -7.3181845711        5.1027265168       -0.8788182815
 H        -5.8143144067        4.1246146477       -1.2559314461
 H        -3.8265021615        6.0955953857       -0.2147458304
 H        -3.8454066213        5.8610852740        1.5201904999
 H        -3.4936450499        4.5597865955        0.5152428984
 H        -8.0372012360        1.2056015020        2.0660816020
 H        -6.1690505961        1.3912190522        2.2538927907
 H        -8.0383161888       -3.3784968704        0.8485085560
 H        -6.5582607842       -2.6443854822        0.1964528257
 H        -9.5874319800        1.2477267782        0.3913980042
 H        -9.7789385128        0.5275651628       -1.0597383720
 H        -8.6548173808        1.7678806771       -1.0425930204
 H        -6.7384772633       -1.3218662368       -1.5274978792
 H        -8.4535207516       -1.0499132835       -2.0484402528
 H        -7.2105519573        0.2213198253       -2.3404523174
 H        -6.5698933740       -1.4234490808        2.6161930668
 H        -8.0167186350       -2.5010363404        3.0573038353
 H        -3.2947271619       -3.3063599450        1.5876197393
 H        -3.5023597904       -1.8753842334        0.6989337373
 H        -4.4208166481       -1.6883978249        5.1620564175
 H        -4.8158410598       -3.2432676133        5.6139366650
 H        -6.1315847107       -2.2460256349        5.0422071361
 H        -3.6576008280       -4.9559110598        3.0582810025
 H        -2.7663714636       -3.7090074669        3.8661686389
 H        -3.9904364340       -4.5787839807        4.6619859634
 H        -0.9318817790       -2.3989473924        0.9686017305
 H        -1.2466914235       -2.2441548803        2.6968235021
 H         2.3711685130        1.1522337177        0.1446823317
 H         2.7951435232        0.6663390531        1.7996202864
 H        -0.6761719105        2.5647821211        2.1846263770
 H         0.0013533859        2.0756760533        0.6002679362
 H         0.9353606025        2.4025807276        2.0067091991
 H         0.0319587538        0.6271030105        4.1165736480
 H         0.1924218841       -0.9999889361        3.6607383818
 H         1.5696902145        0.0438966948        3.6460423001
 H         4.4667604981       -0.5729813802        0.3215143319
 H         3.1631804462       -1.7404516305        0.2546858415
 H         5.1339455591       -3.0149041978       -4.2035059469
 H         5.5217564306       -1.2995070595       -4.5879243781
 H         2.0408502309       -3.0338663949       -1.7248927431
 H         3.6848376853       -3.2931660692       -1.3138008840
 H         3.0407720786       -3.5809007275       -2.9273741340
 H         3.1656223686       -0.0645096263       -4.0964358409
 H         3.3384982313       -1.8487067347       -4.4850439278
 H         1.8459777885       -1.0111459060       -3.8430578455
 H         7.5163607040       -1.4477981041       -3.0954918769
 H         7.8564379497       -2.0255719902       -4.5832242115
 H        11.9219705565       -4.6980002886       -3.9996314459
 H        10.8867751323       -6.2073027048       -4.2957906176
 H        10.4529394476       -2.2858237802       -3.1508049199
 H        11.0420852217       -3.5641544651       -1.9544784012
 H         9.6029598891       -2.4458194827       -1.6204866220
 H         9.6051899134       -5.2450803550       -1.0139259193
 H         8.4029773714       -6.1151649076       -1.8604139849
 H         9.9269681806       -6.0086048067       -2.5124905301
 H        11.8407631899       -5.9215372008       -6.6048140963
 H        10.2730348803       -4.9912330336       -6.5908908904
 H        11.6281092871       -1.4079924306      -10.2724686765
 H        12.0655222136       -3.0553944240      -10.8735996767
 H        10.4857723405       -2.7570029193      -10.6032566983
 H        14.3155100941       -2.8379237736       -9.1301691684
 H        14.4121231757       -3.0449416089       -7.4679141127
 H        13.5594969884       -1.5747705709       -8.1180159828
 H        13.4449882578       -4.9429479907       -9.4700103908
 H        13.2309339502       -5.7767952477       -7.8980931869
 H        11.8435078725       -5.5294902213       -8.9601252034
 Na       -4.1137752236        1.0680190103        1.8382083796
