155

 C        -7.0407088752        7.0351324896        8.0885510920
 C        -7.6051408588        7.9186669137        6.9155763770
 C        -8.5254590741        7.5002141554        5.7972511522
 C        -7.5184124556        6.8311579491        4.5849889058
 C        -6.0563167206        7.4115257790        4.5647368167
 C        -9.5095978273        6.3460915391        6.2350367885
 C        -9.2349931303        8.6206913587        5.0846260997
 O        -7.5482871349        9.1118277931        7.0383667351
 O        -7.8442879470        5.8071037822        3.9374738578
 C        -5.3116564311        6.5614393539        3.5872444516
 C        -6.1232082153        6.2677784658        2.3765724512
 C        -5.3142697209        5.0469140282        1.4339734292
 C        -5.9116206751        3.6660329249        1.8640988989
 C        -7.3674810094        3.0743606011        1.6061337931
 O        -6.9211906856        6.8521992227        1.7417525196
 O        -5.0751713443        2.8983463226        2.4975402962
 C        -5.7819412414        5.3718858013       -0.0222446573
 C        -3.8575624473        4.8754557594        1.6352706713
 C        -7.4275783876        1.5662138429        2.0140565077
 C        -7.1677924577        0.6157292673        0.8616028393
 C        -8.4169170856       -0.1452385356        0.2155799675
 C        -9.2284478944       -1.0325269200        1.3181109965
 C        -8.4504331998       -2.2261846490        1.9975908192
 C        -9.5203780513        0.7430510251       -0.3128879599
 C        -7.8807932208       -1.1307104711       -0.9866924182
 O        -6.0331909631        0.4565599951        0.4953248269
 O       -10.2936473342       -0.5945914426        1.7204699971
 C        -7.1610013235       -1.7534975925        2.7455633141
 C        -6.2531312831       -3.0545006748        3.1709045926
 C        -4.7080396882       -2.8745279350        3.7849986329
 C        -3.9001161168       -1.8190661774        2.9532386740
 C        -2.9658235215       -2.1710705321        1.7924856074
 O        -6.6614116912       -4.1563748941        2.8348552260
 O        -3.8651415087       -0.6470328269        3.3949915071
 C        -4.9432567451       -2.3374245273        5.2993656217
 C        -3.9363304261       -4.3104665178        3.6939558516
 C        -1.3400538368       -2.0168496028        2.0690663785
 C        -0.7398447826       -0.4546320927        2.0053528698
 C         0.7189059782       -0.2703476349        2.2069932325
 C         1.7734116338       -0.9220898199        1.0851024620
 C         3.3068808546       -0.6241015726        1.2098744806
 C         1.1197109611        1.3171033285        2.2813822858
 C         1.0559377479       -1.0156995497        3.6025950013
 O        -1.4895996939        0.5301157242        1.6810554515
 O         1.2688297172       -1.8167895617        0.4249675743
 C         4.0778757899       -1.0982130214       -0.0439790946
 C         3.3830678738       -0.5827618807       -1.2193754313
 C         3.5668386094       -1.4900532248       -2.7245378663
 C         5.0586497123       -1.9955152634       -2.9812200550
 C         5.3828371649       -2.6495008925       -4.3144422280
 O         2.7330014515        0.4617796028       -1.3085162163
 O         5.9473121536       -1.8409883060       -2.1441330081
 C         2.6411840006       -2.7405147046       -2.5428599319
 C         3.2218658522       -0.5037009773       -3.8892800608
 C         6.7710823957       -3.0461275420       -4.5065379778
 C         7.3523976982       -4.0408097197       -3.4849125688
 C         8.8286418774       -4.5419190049       -3.5246560530
 C         9.3590729301       -4.7993150631       -4.9760738266
 C        10.8879948520       -4.4892504490       -5.1740214307
 C         9.7707633966       -3.5160068845       -2.9293685695
 C         8.8323841430       -5.8034437229       -2.5770324730
 O         6.5598140635       -4.5590221340       -2.8013257023
 O         8.6839252471       -5.1644394295       -5.9498252403
 C        11.2798504645       -4.5795949657       -6.5900546356
 C        12.0708356453       -3.4212149745       -7.1404455212
 C        12.6634312665       -3.3821088546       -8.6118012486
 C        11.5228745167       -3.3816393364       -9.5859357471
 C        11.7678972154       -2.8535823566      -11.0299802231
 O        12.4000647001       -2.5643171262       -6.2462882403
 O        10.3986375170       -3.6502257404       -9.1976331881
 C        13.4672334118       -2.0830561957       -8.7381102322
 C        13.3848429518       -4.7019512902       -8.8637158795
 H        -7.8523045308        6.3198404149        8.4068941461
 H        -6.1654883443        6.3998476425        7.7578248873
 H        -6.7768931327        7.6464856092        9.0341988437
 H        -5.9918620925        8.5181643547        4.4494658533
 H        -5.4232485589        7.5306281338        5.4774273985
 H        -9.9258704933        5.5439911499        5.5937411489
 H       -10.3184630113        6.7764293884        6.7237151362
 H        -9.0290302842        5.7213366137        6.9799524731
 H        -8.8477938493        8.8831886738        4.1124034398
 H       -10.2881906242        8.4300809481        4.8045059642
 H        -9.1604870608        9.5237518529        5.6241780978
 H        -4.6190906273        7.2332227897        3.1170320793
 H        -4.7081789136        5.6635229277        4.0687347479
 H        -8.1782190077        3.5639758486        2.1508257972
 H        -7.5899294829        2.9876296893        0.4400166847
 H        -6.8073589241        5.0858538318       -0.1988680604
 H        -5.0839406899        5.0131938848       -0.7630982833
 H        -5.8367608245        6.5216432026        0.0169084932
 H        -3.2408035413        5.4695269815        0.9716135118
 H        -3.5355125495        5.0699924818        2.7034718385
 H        -3.6217761296        3.8527358573        1.2773441073
 H        -8.3920461925        1.4629739743        2.5422501392
 H        -6.7275902862        1.4920905851        2.8126516511
 H        -9.0802846739       -2.8401965646        2.5922743304
 H        -8.1294306810       -2.8150393252        1.2084317111
 H        -9.8357862626        1.4793546588        0.4338910346
 H       -10.2855952692        0.0893900022       -0.8256407427
 H        -9.2067589682        1.4328418748       -1.1826951386
 H        -7.4107680123       -1.8560744993       -0.2861730537
 H        -8.7959657699       -1.4408408287       -1.4727286305
 H        -7.1795794598       -0.4474172138       -1.4819905705
 H        -6.3510015943       -1.2112184821        2.1695830665
 H        -7.5386323203       -1.0782550330        3.4440356240
 H        -3.1892312500       -3.2287889988        1.5046471213
 H        -3.2249485803       -1.4031966879        1.0049911438
 H        -3.8320174244       -2.1254733023        5.5212504572
 H        -5.3253298615       -3.1717197898        5.9599096082
 H        -5.4600894515       -1.4059975536        5.4315912388
 H        -4.4836222804       -5.0945918777        3.0540749687
 H        -2.9545292495       -4.2950943455        3.2285709239
 H        -3.7373945187       -4.6455207506        4.7859369614
 H        -0.6838905594       -2.4548556844        1.3772827551
 H        -1.1606446425       -2.2669169041        3.0466775885
 H         3.4827488729        0.4670809390        1.2632380383
 H         3.6157136565       -1.1710200576        2.0846716060
 H         0.5362039871        1.7704853874        3.0432957913
 H         0.6426604361        1.7534936744        1.3795734492
 H         2.2552119970        1.5626256950        2.1467156657
 H         0.3506656702       -0.7767737688        4.4098876672
 H         1.0998536019       -2.0752338466        3.5278271507
 H         2.0254349620       -0.6196618881        3.9937730911
 H         5.0385719425       -0.7395914046        0.2128478759
 H         4.0438126626       -2.1817030241        0.0658887455
 H         4.8180485096       -3.5647134601       -4.3188685492
 H         4.9840509417       -2.0857104369       -5.1601550064
 H         1.7421613787       -2.5891449995       -2.0649801126
 H         3.0432856445       -3.6438516388       -2.0201030218
 H         2.4259364240       -3.1747918922       -3.3974379941
 H         4.0287736316        0.2087432813       -3.9169223777
 H         3.3003168886       -0.9392591596       -4.8395357826
 H         2.1982666782       -0.2375576519       -3.7857449430
 H         7.4463796039       -2.1737603566       -4.4485707358
 H         7.1294117949       -3.4384013687       -5.5057227791
 H        11.3635310248       -3.5670910524       -4.8741239540
 H        11.4852698415       -5.1614921674       -4.6155687031
 H         9.8305810514       -2.7193188750       -3.6051045051
 H        10.7328533856       -3.9039734061       -2.9028638375
 H         9.3967260247       -3.3039099253       -1.9108579824
 H         8.6811163135       -5.5505941519       -1.4658854679
 H         8.1278299695       -6.5020973166       -2.9809783371
 H         9.8953250034       -6.2557868964       -2.7318925482
 H        11.9200528704       -5.5471298471       -6.9312942153
 H        10.3912908753       -4.6343371503       -7.1820860205
 H        12.0236273990       -1.8118639708      -11.0962158150
 H        12.5583099675       -3.4550668784      -11.4402299046
 H        10.8797087225       -3.1182762141      -11.6616450066
 H        13.9639133873       -2.0737473720       -9.6882240804
 H        14.2087728782       -2.0874843937       -8.0141710015
 H        13.0076750114       -1.1201569097       -8.5681060556
 H        14.0110513082       -4.7101190419       -9.7739890856
 H        14.0086868943       -4.9035888051       -8.0052294831
 H        12.6639994850       -5.5435468588       -8.9696966807
 Na       -3.8937306585        0.9893932764        1.6660356964
