155

 C        -7.1143376967        7.4125170353        7.9616565199
 C        -7.7666358925        8.3195290838        6.8829007462
 C        -8.5437338281        7.4315600651        5.7346745948
 C        -7.5992103805        6.8716654100        4.6742370209
 C        -6.1427528487        7.5396008715        4.5421838427
 C        -9.3737840517        6.1708149074        6.1339458538
 C        -9.3801020025        8.3670205301        4.8452420741
 O        -7.7601887651        9.5226143532        6.9120535442
 O        -7.8583793106        5.8754612686        4.0583664571
 C        -5.1034243468        6.7783879172        3.5809730490
 C        -5.8945891710        6.2032737901        2.3566794411
 C        -5.2513750232        5.0010059465        1.4804544387
 C        -5.7633820594        3.6230536026        2.0525123060
 C        -7.2033060280        3.1916161591        1.6624182182
 O        -6.9069383392        6.8187331519        1.8931151526
 O        -5.1114798101        2.9223146296        2.7719276876
 C        -5.5097631722        5.2238525570       -0.0958377713
 C        -3.5857836739        5.1345148635        1.6920709387
 C        -7.5117540828        1.6553933111        2.0307346987
 C        -7.2319686581        0.6685659215        0.9155487906
 C        -8.4113477307       -0.1375219644        0.4284173605
 C        -9.0629552587       -0.9149368891        1.6479511131
 C        -8.2516527212       -1.9563684414        2.5121782316
 C        -9.4154708652        0.9404661205       -0.2492148604
 C        -8.0517805776       -1.1826491857       -0.6642165447
 O        -6.0764468177        0.3634484833        0.4963060347
 O       -10.2091360584       -0.6842646384        1.9171299862
 C        -6.7177358612       -1.7769984631        2.6575230330
 C        -6.0376437888       -3.1713008591        3.0116509108
 C        -4.5740889506       -2.9076328712        3.8529454132
 C        -3.9593783188       -1.6580929502        2.9385490967
 C        -2.9289540049       -1.9838906972        1.7754295637
 O        -6.3969754697       -4.2427224123        2.7197664104
 O        -4.3719889815       -0.5302332685        3.0722586292
 C        -4.8445578348       -2.3232813580        5.2875292989
 C        -3.9435045783       -4.3312528058        3.9919074639
 C        -1.4775998014       -1.9307988333        2.2325459815
 C        -0.8847399934       -0.4407931372        2.1202543753
 C         0.7092611163       -0.3627409780        2.3066450135
 C         1.7393089364       -1.3106637913        1.1622106952
 C         3.2883154277       -0.9899209659        1.2479568673
 C         1.0179638272        1.1177725591        2.4724874300
 C         1.1620436583       -1.2031945284        3.6503989765
 O        -1.6118037432        0.4844894887        2.1486912836
 O         1.2008654341       -2.1179201255        0.4857059409
 C         4.0962424361       -1.4327820712       -0.0296796349
 C         3.4349980950       -0.8305670813       -1.3730590268
 C         3.6082439242       -1.4425005116       -2.8065662896
 C         5.1186591495       -1.9246593678       -3.1324234712
 C         5.2080935157       -2.7755834254       -4.3386913130
 O         2.8507505576        0.2164404972       -1.3051594946
 O         6.0768761609       -1.6849058168       -2.4154977884
 C         2.5643333166       -2.5778203601       -2.7380847880
 C         3.1392860365       -0.4265195456       -3.9183229574
 C         6.7357207049       -3.1016210848       -4.6076905737
 C         7.2180484200       -4.2733257176       -3.6103609518
 C         8.7206182442       -4.6640458815       -3.6032015926
 C         9.2458273610       -4.7911842055       -5.0897206413
 C        10.7163796479       -4.4090072764       -5.3284595938
 C         9.3326086988       -3.5600901661       -2.6645266350
 C         8.9458942993       -6.0907733001       -2.9892957282
 O         6.4995513017       -4.5721048791       -2.6441021783
 O         8.4359022672       -5.1845646493       -5.9100151734
 C        11.3728582167       -4.5076084629       -6.8500072855
 C        12.2658874408       -3.3236530325       -7.2470691790
 C        12.8278800343       -3.3221405490       -8.7331353972
 C        11.4952284507       -3.3591583095       -9.7132339558
 C        11.6793710003       -2.9869457322      -11.1126050728
 O        12.2421055871       -2.3549142472       -6.6105600060
 O        10.4341625967       -3.8673075377       -9.4212884899
 C        13.7285839732       -2.1216131047       -8.9679233349
 C        13.8531142218       -4.5199420150       -9.0757593013
 H        -6.9233842083        7.9154282990        8.8673127713
 H        -7.7114275712        6.4847550118        8.0252460798
 H        -6.1755967210        7.2001808367        7.6489183121
 H        -6.2163678660        8.6073059320        4.2994342854
 H        -5.6845222992        7.8652308976        5.4596263931
 H        -9.8598411102        5.7318124474        5.3017168298
 H       -10.1963599616        6.3653817770        6.8256783488
 H        -8.8303555001        5.3088590298        6.4277483819
 H        -8.7620090323        9.0018478649        4.1636768325
 H       -10.1825149459        7.9672508469        4.2304676033
 H        -9.8024351921        9.1972034745        5.5118083980
 H        -4.3618752567        7.5425858393        3.1919529818
 H        -4.6639737315        6.0091401021        4.0724949622
 H        -7.8033533003        3.8014457583        2.4008854932
 H        -7.4392688931        3.3988534077        0.6725788417
 H        -6.4914716851        4.9038798712       -0.3148193413
 H        -4.7489523712        4.6014155290       -0.5402510744
 H        -5.4864985158        6.2308185083       -0.3763487038
 H        -3.3930141806        6.1860251312        1.9741099544
 H        -3.1974161737        4.5173759425        2.4968850340
 H        -2.9803177789        4.9250524580        0.8177641386
 H        -8.5356877598        1.5952231287        2.3872280813
 H        -6.9419373636        1.5415735684        2.9795894127
 H        -8.7016571543       -1.8534278595        3.5397536962
 H        -8.4936335901       -3.0504135720        2.1719977980
 H        -9.6045367186        1.7887412899        0.3534213159
 H       -10.2670405674        0.4053635161       -0.6365602371
 H        -9.0271694713        1.3516247754       -1.0954093734
 H        -7.1517219267       -1.5765592435       -0.3210717844
 H        -8.9869144937       -1.6790763738       -0.6132242596
 H        -8.0334883168       -0.6581089842       -1.5528694640
 H        -6.0708550100       -1.3847845767        1.8558200535
 H        -6.6163212432       -0.9486819017        3.4504560872
 H        -3.1019067371       -2.9892463500        1.4493285261
 H        -2.9569734100       -1.2693888360        1.0073275919
 H        -3.9872391192       -2.0449956133        5.8503807661
 H        -5.5454988744       -2.9419854495        5.7554294190
 H        -5.3837643970       -1.4012390578        5.0608673846
 H        -4.7206800347       -5.0189578921        3.6740520897
 H        -3.0172189091       -4.4769176038        3.3719059376
 H        -3.7085747828       -4.5800862096        4.9397412259
 H        -0.8162035452       -2.5021908287        1.4942452754
 H        -1.3582163909       -2.1829525736        3.3596831718
 H         3.3813124689        0.0891413324        1.2399292716
 H         3.5103651667       -1.4143935344        2.2500106621
 H         0.7450717560        1.4025042852        3.4835872336
 H         0.3602408028        1.7066596693        1.8482093185
 H         2.0083889787        1.2322761503        2.1688543891
 H         0.3530154182       -1.1157941983        4.3745112016
 H         1.1889295388       -2.2840369259        3.3785165122
 H         2.0922044160       -0.9352666526        4.1052389622
 H         5.1190661982       -0.9226369138        0.1220316792
 H         4.1650357884       -2.5008293937        0.1331676693
 H         4.3988875414       -3.5625305955       -4.3849975905
 H         5.0507174660       -2.1397085415       -5.2506469320
 H         1.5793800498       -2.1140651325       -2.3980318440
 H         2.6105092085       -3.2661460973       -1.9456574752
 H         2.3615648432       -3.3515484784       -3.5881463016
 H         4.0471343214        0.0409900688       -4.2515492404
 H         2.6519655001       -0.9426866349       -4.7748150424
 H         2.3764920361        0.1999220371       -3.4681550288
 H         7.3455513290       -2.2053921584       -4.4236022490
 H         7.0174879429       -3.3273993976       -5.6103989293
 H        11.0122052025       -3.4256606174       -4.8213246754
 H        11.4890715086       -5.0831517939       -4.8251782742
 H         9.4284004428       -2.6518251448       -3.3156206055
 H        10.4228447972       -3.7306889276       -2.4002705360
 H         8.5802257415       -3.4977628267       -1.8779940268
 H         8.2606810865       -6.1850160509       -2.1484476283
 H         8.6501904005       -6.8552107622       -3.7719850020
 H         9.9479590616       -6.2805497174       -2.7475288808
 H        11.8456515831       -5.3848018662       -6.9570838804
 H        10.6122411722       -4.5814358346       -7.7108271814
 H        11.9829938406       -1.9216024204      -11.1756219014
 H        12.4264479727       -3.5996347727      -11.6451336105
 H        10.6474635286       -2.9020826638      -11.5245430441
 H        14.1753054007       -2.0155811437       -9.9684984531
 H        14.5721278226       -1.9797772445       -8.2374471285
 H        13.0991246846       -1.2816416233       -8.7532785567
 H        13.9674690065       -4.5004262971      -10.1260698253
 H        14.8521005573       -4.4592485282       -8.6215699664
 H        13.4154366573       -5.4660417026       -8.8741452870
 Na       -4.1860373005        1.1449916065        1.8763636673
