155

 C        -7.1916544765        7.7431968589        7.8937628437
 C        -7.9332826089        8.4273433670        6.7133572371
 C        -8.7020040277        7.3300631115        5.5979007299
 C        -7.5086926225        6.7853362232        4.7719744691
 C        -6.3733763415        7.6214282349        4.2316814781
 C        -9.6072293952        6.4583017313        6.5876785141
 C        -9.6105331916        8.3112965803        4.8231314957
 O        -8.0717489310        9.6397268460        6.6132383790
 O        -7.4855002977        5.5401665983        4.5757061137
 C        -5.2713931106        6.7894189638        3.5851748454
 C        -5.7045424411        6.3719499357        2.0495016307
 C        -4.9985303302        5.0690150028        1.5046669649
 C        -5.5940746480        3.8184013681        2.1623281116
 C        -6.9644083153        3.4085243165        1.7786812201
 O        -6.5854141751        6.8314497037        1.4951073934
 O        -4.8899476169        3.1353509783        2.9418414807
 C        -5.3560918005        5.0628058585       -0.1033422963
 C        -3.3966641641        5.0210884693        1.6887359095
 C        -7.4061779606        1.9570031289        2.0706164203
 C        -7.1095698360        0.8584054770        1.0796527501
 C        -8.3024160322       -0.0697372691        0.6832751733
 C        -9.0709298343       -0.8806324617        1.9639548562
 C        -8.3055889132       -1.9452188936        2.7212660239
 C        -9.4216189168        0.7659315352        0.0934449956
 C        -8.0220080856       -1.2379140234       -0.3445103054
 O        -5.9694600559        0.7302710921        0.6739346554
 O       -10.2177592958       -0.5969932542        2.1447831401
 C        -6.7860873059       -1.8492145650        2.4102065614
 C        -5.9439630162       -3.0825977603        2.9030202476
 C        -4.5622970969       -2.8325717459        3.8129872424
 C        -3.9234914612       -1.7272248457        3.0564598245
 C        -2.9934877116       -2.0953415237        1.8755104492
 O        -6.2398123994       -4.2418985666        2.7123312353
 O        -4.2893386484       -0.5643296977        3.2416034854
 C        -5.0235904317       -2.3506383923        5.2355128192
 C        -3.5897397742       -4.1124658800        3.9220136807
 C        -1.4563487881       -2.1437892482        2.2029030428
 C        -0.8352171781       -0.7148153019        2.1880648794
 C         0.8357403198       -0.6457177619        2.4569772358
 C         1.4615003403       -1.3671019676        1.3080323592
 C         2.9804518297       -1.1254748141        1.2150164670
 C         1.2259380695        0.8957245695        2.4773455380
 C         1.1936040353       -1.2726511442        3.7737809781
 O        -1.5354475326        0.3425201995        2.2027817159
 O         0.8141951610       -2.1716287636        0.6627971457
 C         3.4516006711       -1.7969126983       -0.1146219807
 C         3.2387716801       -0.8134337253       -1.3485411159
 C         3.5088672677       -1.4471021188       -2.7801192104
 C         5.0493126862       -1.9397095802       -3.0747404157
 C         5.1663782352       -2.8261928723       -4.3928161489
 O         2.9121842033        0.3365565908       -1.1835223165
 O         5.9083101961       -1.3475421947       -2.4957750939
 C         2.5955191632       -2.6481054458       -2.9090073140
 C         3.2499082510       -0.3411581121       -3.8953165783
 C         6.5781689441       -3.4750361289       -4.7048846370
 C         7.0893356017       -4.4043399863       -3.6531258235
 C         8.6646666853       -4.6877189024       -3.6639470962
 C         9.3300918753       -4.6508612217       -5.1774968493
 C        10.7164381675       -4.1616171998       -5.3464512040
 C         9.4254829859       -3.6955990631       -2.6189860215
 C         8.8584351959       -6.1781884650       -3.2835960763
 O         6.3603809157       -4.8520798656       -2.7829555464
 O         8.7295605998       -5.0286447758       -6.1535572736
 C        11.2963739185       -4.4461198856       -6.7433730095
 C        12.0940474865       -3.3495774423       -7.4953199407
 C        12.7218811542       -3.3357322761       -8.8472569309
 C        11.6420411870       -3.4050871692       -9.9370000461
 C        11.8575722101       -2.9019354963      -11.3460599711
 O        12.1667810588       -2.3287641398       -6.7660446350
 O        10.6335594081       -4.0029174281       -9.7888897128
 C        13.5264591021       -1.9730380984       -9.1168113794
 C        13.6351997800       -4.5999774924       -8.9507493424
 H        -6.0627752405        7.6063607769        7.6701022223
 H        -7.5247021075        8.2736223648        8.7434077116
 H        -7.5224077923        6.6405495870        8.0438848054
 H        -6.5340544153        8.5135679677        3.6897504452
 H        -6.1410119020        8.2971847897        5.1078226913
 H       -10.5118364208        5.9017909654        6.2063704275
 H        -9.9753549722        7.0912942961        7.4511898351
 H        -9.1053457013        5.5254008494        6.9731947484
 H        -9.3051668680        9.3593726320        4.8436041863
 H        -9.5828350647        8.0089917613        3.7844502653
 H       -10.6299347669        8.2550946362        5.0436119135
 H        -4.3110695738        7.2471898707        3.5246715097
 H        -5.3010753836        5.7643929510        4.1673748996
 H        -7.6317934229        4.1298963204        2.2369350590
 H        -6.9645160604        3.4311214728        0.6247844511
 H        -6.1553492395        5.8905195533       -0.1903267563
 H        -5.5840452327        4.0472470100       -0.4922481097
 H        -4.5009320002        5.5297268874       -0.6255046722
 H        -2.8965929572        5.8850740167        2.0659154953
 H        -3.1286982363        4.1399931477        2.2836814584
 H        -2.9341319239        4.6476940460        0.7494041857
 H        -8.4525606116        2.0285192518        2.3839919200
 H        -6.9286278454        1.6975265553        3.0251565015
 H        -8.5390198635       -1.7051883423        3.7504331532
 H        -8.6008444154       -2.9090189068        2.5540066665
 H        -9.7447335550        1.5957434712        0.8074342967
 H       -10.2140170039        0.0926710059       -0.0741202730
 H        -9.2485992274        1.3008028470       -0.9071342453
 H        -7.1146253220       -1.7398153343       -0.0373926969
 H        -9.0271122297       -1.5743035422       -0.4416157747
 H        -7.8839349312       -0.6177173723       -1.2833789352
 H        -6.5193482229       -1.5198149326        1.4414962525
 H        -6.4080180746       -0.9987512692        3.0232876118
 H        -3.1925025098       -3.1245464198        1.5000291116
 H        -3.0841029869       -1.3460475181        0.9898910228
 H        -4.2312572130       -2.2101321549        5.9554651451
 H        -5.8288970532       -3.0667096384        5.5190702091
 H        -5.5373909712       -1.3518677356        5.1533369354
 H        -4.1300296594       -5.0210862111        4.3371180038
 H        -3.2064315899       -4.1964400985        2.9451521735
 H        -2.6012742817       -4.0881510813        4.5807847844
 H        -0.9552596217       -2.6756109799        1.4125886802
 H        -1.2562650921       -2.4502512441        3.1731001598
 H         3.1481217542       -0.0505453611        1.0760178442
 H         3.2374136654       -1.4449001547        2.2152538514
 H         0.4217018186        1.3618616541        3.0930429808
 H         1.2003881096        1.2481598794        1.3952796993
 H         2.2241276844        0.9915112849        2.9763094844
 H         1.1673398074       -0.5324775067        4.5921786427
 H         0.6687775909       -2.1752899724        4.0721496995
 H         2.2700191918       -1.5526840371        3.5877686809
 H         4.4523259458       -1.9987885767       -0.1091475935
 H         2.8473476947       -2.7146629420       -0.0548217423
 H         4.4684350777       -3.6262551504       -4.2562739575
 H         4.9640390508       -2.4100544378       -5.3790879495
 H         1.5778342659       -2.5786455790       -2.7103309968
 H         2.8332757582       -3.3860916147       -2.1085439225
 H         2.6704612281       -3.2400311102       -3.7745154913
 H         4.1386800632        0.3601310922       -3.9299566893
 H         2.9379520745       -0.8199612539       -4.8360337741
 H         2.3520627807        0.1587898073       -3.4595010955
 H         7.4353403053       -2.7725622553       -4.8343478388
 H         6.5345911410       -4.0232631004       -5.7159219619
 H        10.7536806031       -3.1625893494       -5.0493789513
 H        11.3855216452       -4.6294113375       -4.6989495176
 H         9.1032285918       -2.6758733129       -2.7427667153
 H        10.4479767733       -3.6908364484       -2.8274712497
 H         9.1300974004       -4.1259954952       -1.7081434308
 H         8.1038071496       -6.3318835388       -2.5857953893
 H         8.6173460984       -6.8349851390       -4.1006177649
 H         9.8882887689       -6.3635334049       -2.9660886941
 H        12.0387922597       -5.3931977030       -6.7292789139
 H        10.5170297903       -4.8995664105       -7.2901314505
 H        12.0703939098       -1.8451738700      -11.6107307154
 H        12.7275057049       -3.5788746319      -11.5348228935
 H        10.9509343058       -3.0314377100      -11.9217940637
 H        14.1006110212       -1.9984376499      -10.0557618120
 H        14.2771679154       -1.6515080864       -8.3960776882
 H        12.7483975202       -1.1437577851       -9.1639231806
 H        14.0428793039       -4.9772981246       -9.9277330136
 H        14.4454648898       -4.4264944906       -8.2778741480
 H        13.0152259462       -5.4136214968       -8.5184252509
 Na       -3.9607101436        1.2327666961        1.8703052155
