155

 C        -7.2193877736        8.4163913537        7.6111370703
 C        -8.2223400091        8.6656891558        6.4428178042
 C        -8.8799660928        7.3434197227        5.6774810249
 C        -7.5912705494        6.5932300953        5.1100874016
 C        -7.1377450510        7.0893946080        3.7128427775
 C        -9.7090514152        6.5704769698        6.6471319919
 C        -9.8052793580        7.9170344590        4.5617492338
 O        -8.4017619432        9.7365779414        5.9638301911
 O        -7.0001950029        5.6763839838        5.6790711986
 C        -5.8104906435        6.3632211572        3.2803952941
 C        -5.6043758102        6.2768673234        1.7425050560
 C        -4.5945757616        5.1281970263        1.3797937311
 C        -5.2024739794        3.8062563466        1.9539084099
 C        -6.7354803885        3.6514932368        2.0454963788
 O        -6.0318179944        7.1371241245        0.9752527597
 O        -4.5238101179        2.9380465705        2.4955327382
 C        -4.6017104639        4.7740426208       -0.0537096173
 C        -3.1763705821        5.3024071426        1.9930092892
 C        -7.3053452414        2.2749212511        2.5238829325
 C        -7.0196077398        1.1104558205        1.6003023494
 C        -8.1353661503        0.2703159512        1.0693339626
 C        -8.7397143536       -0.6474191087        2.1171635068
 C        -8.1763073085       -2.0579157822        2.0937345194
 C        -9.3909952353        1.1870623302        0.7272997465
 C        -7.8368100591       -0.5247310428       -0.2384306357
 O        -5.8715435372        0.7413655332        1.3598379979
 O        -9.5343568156       -0.3478215449        2.9646696346
 C        -6.8669855236       -1.8578985312        2.9548180093
 C        -5.9872606450       -3.0692341328        3.2373960555
 C        -4.6448360287       -2.8742114748        4.2035137398
 C        -3.8875235634       -1.6362077837        3.3765934772
 C        -3.1196168009       -2.0207060344        2.1423685997
 O        -6.1935244987       -4.0841103233        2.7061200072
 O        -3.8770950554       -0.5042778290        3.7776833409
 C        -4.7906739317       -2.3801850663        5.5832953110
 C        -3.8455909008       -4.2270011562        4.1742296346
 C        -1.6401693828       -1.9220740000        2.3475904412
 C        -0.9247124611       -0.6511317736        2.2640828821
 C         0.6030263656       -0.7503687173        2.5088724847
 C         1.2900498806       -1.6357087982        1.2617996073
 C         2.8201880019       -1.6593432935        1.0949778893
 C         1.4094824685        0.6181773391        2.6905726427
 C         0.7928457018       -1.5508752416        3.7757886688
 O        -1.4366107276        0.4543510910        2.0091862113
 O         0.5617300683       -2.4105774358        0.7251987272
 C         3.1043560911       -2.2443720523       -0.3675761353
 C         3.1486168730       -1.1186616711       -1.5055276260
 C         3.2352413158       -1.4694793706       -3.1147363981
 C         4.7008279802       -1.9280897464       -3.3450683152
 C         5.0300605635       -3.1066329478       -4.2509826482
 O         3.3210162930        0.0052225538       -1.1450388672
 O         5.5630489089       -1.3704784204       -2.7216239814
 C         2.1902313430       -2.6054396131       -3.5363107439
 C         3.1029089196       -0.1953893068       -3.9347629397
 C         6.5764742324       -3.1622998518       -4.3150388921
 C         7.1019497239       -4.6176183208       -3.7958778674
 C         8.6904535743       -4.8230136545       -3.8891039682
 C         9.2044869667       -4.5032296614       -5.3363411025
 C        10.7042927222       -3.9051954548       -5.5343256011
 C         9.3212667089       -3.9601092748       -2.7170053079
 C         9.0362938580       -6.2837649403       -3.8349330506
 O         6.3374206812       -5.4915360081       -3.3356147439
 O         8.4302686339       -4.6038465742       -6.2366553711
 C        11.1185972841       -4.1808050686       -7.0356878183
 C        11.8119601060       -2.9960393059       -7.7144445561
 C        12.7636353644       -3.2702179501       -9.0364779399
 C        11.6889473963       -3.5629099309      -10.2380481146
 C        11.9773961464       -3.0025145441      -11.6540990994
 O        11.6475171932       -1.9039343715       -7.2327618938
 O        10.7730284571       -4.2737315498       -9.9559437105
 C        13.6991839765       -2.0817910840       -9.1454250688
 C        13.4033139759       -4.7361359588       -8.8083323090
 H        -7.6537629710        8.8905044954        8.5108698955
 H        -7.0962749561        7.3351308047        7.7299092175
 H        -6.2661703431        8.7811021020        7.3343617221
 H        -8.0572908399        6.9843428241        3.2308791346
 H        -7.0713723929        8.2161863752        3.5328034649
 H       -10.0980760624        5.5636287760        6.4233607919
 H       -10.7280323590        7.1389564662        6.8123382023
 H        -9.3635702783        6.7298626255        7.6754631530
 H       -10.8356102050        7.8656699482        4.9842386444
 H        -9.6837571780        8.9839715979        4.4481886409
 H        -9.7753838227        7.5255370551        3.5543134577
 H        -5.0095890823        6.8227528119        3.8182592891
 H        -5.8778918437        5.2847499861        3.6367442916
 H        -7.0926719312        4.3943715328        2.7358604611
 H        -7.0345903589        3.9505783574        1.0121100634
 H        -4.1496870004        5.7119304206       -0.5087982950
 H        -5.6231659650        4.7267215706       -0.4788574324
 H        -4.0730948876        3.8968275585       -0.2611725090
 H        -2.4323510631        5.5746154859        1.2736660664
 H        -3.0462875454        5.9731646546        2.8071761984
 H        -2.9764760429        4.2923268088        2.4056215296
 H        -8.3368660715        2.4670791738        2.6081920708
 H        -6.9637037699        1.9591063499        3.5533801304
 H        -8.8121924600       -2.7154579575        2.7116866878
 H        -8.0922247446       -2.4211689912        1.1036883633
 H        -9.9153503536        1.3158053380        1.6786895957
 H       -10.1540806824        0.6041316624        0.3287569328
 H        -9.2541772152        2.0865715116        0.1855290319
 H        -6.9073797638       -0.9931966139       -0.0747128370
 H        -8.7709700373       -1.0532533247       -0.4385651693
 H        -7.6201174499        0.3121446237       -0.9472754036
 H        -6.2710395523       -1.2114570415        2.4033911561
 H        -6.9679621077       -1.2064175060        3.8695438464
 H        -3.2390396769       -3.0780410530        1.8432549428
 H        -3.4756545254       -1.5220543485        1.1764343324
 H        -3.8783683835       -2.3325858212        6.0196197878
 H        -5.3640804746       -3.0462257315        6.1855455873
 H        -5.2051412290       -1.3449384843        5.5918296918
 H        -3.8813377881       -4.7888673093        5.1235229048
 H        -4.0265288809       -4.8574358597        3.2683344939
 H        -2.7485543238       -4.1067607374        4.1226784654
 H        -1.2023057648       -2.4882499235        1.4482126093
 H        -1.4254568735       -2.4633185731        3.2771492815
 H         3.3076822012       -0.6754891107        1.2923929543
 H         3.2893900221       -2.4465376897        1.6915868734
 H         1.2669629866        0.9336941071        3.7546988116
 H         0.8661557537        1.1928001175        1.9493209429
 H         2.4285378896        0.6317002961        2.6695914457
 H        -0.0248930503       -1.3777416891        4.4548766559
 H         0.8860081059       -2.6074284870        3.5256909585
 H         1.7603472230       -1.2618519921        4.1966666769
 H         4.0157704128       -2.7323925589       -0.2511835097
 H         2.3594703747       -2.9855913996       -0.6721375797
 H         4.7987557946       -4.0913665291       -3.7797780256
 H         4.4803778343       -3.0939603933       -5.2446421081
 H         1.1442647623       -2.3748003084       -3.8226328533
 H         2.1011806864       -3.3224352462       -2.8090520315
 H         2.4148199122       -3.1716076012       -4.5029536664
 H         3.5747332868        0.6511437743       -3.4581801129
 H         3.4255685377       -0.5185152706       -4.9418374836
 H         2.0713241909        0.1157710121       -3.8795119511
 H         6.9974918781       -2.5680177423       -3.4702777245
 H         7.1324120164       -3.1371237950       -5.2391332929
 H        10.5949184267       -2.7988774592       -5.4184737940
 H        11.5250634277       -4.2816655879       -4.9362345316
 H         9.7582663926       -3.0866674209       -3.3327852658
 H        10.1175812949       -4.5711826315       -2.2507817971
 H         8.6261918940       -3.5679272540       -2.0311440954
 H         8.7521456071       -6.5968721060       -2.9134640389
 H         8.4329106219       -6.8179164461       -4.5733139481
 H        10.0728005198       -6.3927557880       -4.0037081391
 H        11.8022900803       -5.1124728966       -7.1293396148
 H        10.3566851008       -4.4758112734       -7.7159729592
 H        11.9262091846       -1.8582947285      -11.6960793099
 H        13.0372414779       -3.3299001822      -11.9398334187
 H        11.0762826636       -3.1956950271      -12.1819300932
 H        14.3415245265       -2.2379624384      -10.0372014513
 H        14.3867590542       -1.8823232247       -8.2614545735
 H        13.0519423404       -1.1984440310       -9.3736527755
 H        13.9911398626       -4.9811590870       -9.7160061131
 H        14.1221856935       -4.6909854127       -8.0661464512
 H        12.7101021371       -5.5425659199       -8.6741445680
 Na       -3.5204159783        1.0797008695        2.1922754938
