155

 C        -7.3748234119        8.5817843731        7.4678468992
 C        -8.3270280902        8.8018955752        6.2084210798
 C        -9.0527719125        7.3662120525        5.6331815548
 C        -7.7543104909        6.6505491393        5.0673774280
 C        -7.2677298872        6.7722269170        3.4698227146
 C        -9.5141538626        6.6397633371        6.8527855699
 C       -10.1570089994        7.6575443116        4.6350311411
 O        -8.5681067278        9.8593944201        5.6578215986
 O        -6.9383087812        6.2868123862        5.8841847026
 C        -5.7874219290        6.5131971502        3.2739841183
 C        -5.4721188217        6.2846862202        1.7722633370
 C        -4.4597234565        5.1504440518        1.4472684161
 C        -5.0939247207        3.7437375329        1.9491842757
 C        -6.5904257096        3.5043280364        1.9227869840
 O        -5.8285668949        7.0163810508        0.9505223693
 O        -4.4788271632        2.9245520979        2.5355231157
 C        -4.3725824459        4.9098795370       -0.1605043794
 C        -3.0551208792        5.3796917014        2.0262481885
 C        -7.0078474751        2.3714254531        2.7841600300
 C        -7.0169597756        1.0963329362        1.8220943841
 C        -8.2145022850        0.5891766305        1.0623001481
 C        -8.5325880413       -0.5010674056        2.1764220078
 C        -7.8572873152       -1.8619861277        2.2474433958
 C        -9.2963073531        1.6008067055        0.8515218190
 C        -7.7521415428        0.0711624234       -0.4087804592
 O        -5.9458373501        0.5103131330        1.6109059184
 O        -9.0776313887       -0.1125184124        3.1862792005
 C        -6.9577004962       -1.9247754199        3.5596608914
 C        -5.9360949039       -3.1029271898        3.6289626531
 C        -4.6039430964       -2.9959072987        4.3703083452
 C        -3.9145152841       -1.6690579779        3.6488297775
 C        -3.2719011122       -1.8684142033        2.2740516044
 O        -6.1114504778       -4.0672015664        2.8818459852
 O        -4.2117867469       -0.5208234956        4.0738796394
 C        -5.0540739169       -2.4474847903        5.7590101626
 C        -3.7373636706       -4.3124836445        4.2816601838
 C        -1.6864276576       -1.9482792102        2.2797109946
 C        -0.7732577818       -0.7622588198        2.0523984472
 C         0.7312894092       -0.9691321949        2.2764513315
 C         1.3077707184       -1.8795074311        1.2293457533
 C         2.8063463513       -1.7232119214        0.8793894070
 C         1.4193724512        0.4711120467        2.5421853665
 C         1.1853027010       -1.8939687822        3.5314301563
 O        -1.2557798587        0.3351461523        1.8808927582
 O         0.4939914542       -2.5104844164        0.5258258233
 C         3.0836679424       -2.3398084465       -0.4989418567
 C         2.9920747485       -1.1536853739       -1.5824541918
 C         3.0131227444       -1.5300243177       -3.0714845520
 C         4.6808554163       -1.9396718665       -3.2025007507
 C         5.1422382753       -3.0689225788       -4.1713152655
 O         3.1897628199       -0.0571181884       -1.1477070019
 O         5.5056612402       -1.2849078569       -2.6050051147
 C         1.9270102239       -2.4885056815       -3.4613419036
 C         2.9205944851       -0.1587692781       -3.9162822026
 C         6.6338341661       -3.2794448641       -4.2199608963
 C         7.0967931372       -4.7659471224       -3.8535013140
 C         8.6523144340       -4.8276469946       -4.0919626389
 C         9.0740229408       -4.3429967922       -5.5452919840
 C        10.5049376656       -3.7416899002       -5.7549329800
 C         9.4036194721       -4.0821912180       -2.9413853463
 C         9.1048811446       -6.3807920631       -3.8697536910
 O         6.4888456675       -5.7768241106       -3.6429132894
 O         8.2036073836       -4.4480677474       -6.4261471299
 C        10.9035613266       -4.0601126657       -7.1219211908
 C        11.7558759727       -3.0867669965       -7.8850804960
 C        12.8213757988       -3.3941515272       -8.9946507144
 C        11.6953545189       -3.6363328373      -10.1252898623
 C        11.9572832182       -2.8947725636      -11.5327786416
 O        11.4450295833       -1.8806435198       -7.7520859890
 O        10.7073785006       -4.3593373130       -9.9925147839
 C        13.6956243906       -2.1473611930       -9.1857055697
 C        13.7741556737       -4.6299859538       -8.8609402063
 H        -6.4233397673        9.1394707315        7.1219466252
 H        -7.7007818687        8.8868842746        8.4614140257
 H        -7.1730547118        7.4418204935        7.5415403706
 H        -7.9978699389        5.9530531819        2.9419380504
 H        -7.6596477257        7.6382211751        3.0103903187
 H       -10.3247295203        5.9764220807        6.5307517439
 H        -9.9298885792        7.1667907599        7.6368046700
 H        -8.6681499842        6.2040873836        7.3870916883
 H       -10.9262706513        6.9283861460        4.5919002163
 H       -10.5987848630        8.6222849932        4.9477747785
 H        -9.6867608330        7.8516517545        3.6854197268
 H        -5.1758022500        7.4359822957        3.5601563661
 H        -5.4901578971        5.7157278829        3.9363270734
 H        -6.9877828368        4.4589898634        2.3273402603
 H        -6.8238201804        3.5128802329        0.8299002162
 H        -3.5296396103        5.3967500907       -0.6049059370
 H        -5.2442125007        5.2887502963       -0.6926988014
 H        -4.3892714868        3.7392605075       -0.1942874190
 H        -2.2483002626        5.2676226841        1.2681097016
 H        -3.0311029587        6.4959262540        2.2018966656
 H        -2.7599170583        4.8630140720        2.9259314102
 H        -8.0530904062        2.6710543291        3.2305283601
 H        -6.3214605263        2.2332904956        3.5824974178
 H        -8.5347885074       -2.7328322547        2.3728448695
 H        -7.3608710108       -2.0025582040        1.2967279277
 H        -9.9884794594        1.7495326472        1.6818775776
 H       -10.0811440975        1.2934608544        0.1364340804
 H        -8.7435849018        2.5189707389        0.4433570987
 H        -6.7571416196       -0.3817868044       -0.1183391827
 H        -8.5751796150       -0.6260581727       -0.5723509663
 H        -7.6105772837        0.8964159313       -1.0664004877
 H        -6.5046371444       -0.8433112216        3.6412515534
 H        -7.4865069291       -1.9146497873        4.4717036716
 H        -3.7305554934       -2.8154479479        1.8748305374
 H        -3.6461733402       -1.2303567294        1.5076237591
 H        -4.2419476321       -2.3582113762        6.6037864811
 H        -5.7758571097       -3.1507086905        6.2733952663
 H        -5.5212493650       -1.5033459272        5.5459244621
 H        -4.4739518046       -5.1017198554        4.6205392388
 H        -3.5243733858       -4.6045192984        3.2967795560
 H        -2.8477057844       -4.5567104906        4.9494235554
 H        -1.2585175298       -2.6107985389        1.6218203384
 H        -1.4938724838       -2.3334491420        3.2950396373
 H         3.0556724954       -0.6613980345        0.8257048362
 H         3.4163743202       -2.1312389198        1.6879896633
 H         1.0965520962        0.7496573373        3.5305519780
 H         1.2671839606        1.2030995286        1.7121649385
 H         2.5032058938        0.2206066395        2.8524749969
 H         0.6937994226       -1.4099551315        4.4011293775
 H         0.8924635459       -2.9376137949        3.3792700934
 H         2.2858280934       -1.8904250062        3.5976660236
 H         4.0806223040       -2.8569582302       -0.8376030137
 H         2.2922696437       -3.0554211572       -0.7935405840
 H         4.7353566287       -3.9656083934       -3.7064479603
 H         4.7919613675       -2.9912203971       -5.1415500043
 H         1.0322326399       -1.9525760590       -3.6909529098
 H         1.7184047810       -3.2801487136       -2.6506750736
 H         2.0942675484       -3.0639551741       -4.2788467133
 H         3.8390151413        0.3664794279       -3.5984915824
 H         2.8115341652       -0.3235305648       -4.9710842540
 H         2.2128581579        0.5257357185       -3.4293290334
 H         7.1935104933       -2.5507627240       -3.5806306888
 H         6.9973765516       -3.3268557138       -5.2759651685
 H        10.4092101832       -2.6961251950       -5.6896504317
 H        11.2334691522       -4.1105292035       -4.9969153886
 H         9.7259273828       -3.1401196870       -3.1753670474
 H        10.0744241882       -4.7287319898       -2.4875455922
 H         8.6338299254       -3.8742442395       -2.1802700636
 H         8.5891803783       -6.9766011816       -3.0440162835
 H         8.9934620348       -6.8011847001       -4.8262360141
 H        10.2072905459       -6.2979898042       -3.6082071710
 H        11.1307577572       -5.0426799320       -7.3770635611
 H         9.9313881542       -3.8854840393       -7.7307138719
 H        12.5799138918       -2.0712447254      -11.3539158343
 H        12.6101551829       -3.5821075431      -11.9822608047
 H        11.1267884886       -2.3894277887      -12.0465502005
 H        14.4910157090       -2.1986217452       -9.9599014980
 H        14.1540767547       -2.0278362332       -8.2319315673
 H        13.0886695958       -1.2463395735       -9.3421002524
 H        14.3881255622       -4.6794242181       -9.7314576682
 H        14.5072150583       -4.4628719996       -7.9949389988
 H        13.2530723094       -5.5935542292       -8.6679078369
 Na       -3.7648261976        0.6840985668        2.4297310608
