155

 C        -9.0337725908       10.4582750617        5.5636413056
 C        -9.1050073961        9.1462555998        4.8674206807
 C        -8.4785370874        7.8207656902        5.5104242919
 C        -6.9684805211        7.5826375273        5.1821351730
 C        -6.4074690877        8.3409629846        3.9801356938
 C        -8.9250958440        7.7437352700        7.0250509571
 C        -9.1686131606        6.6484320194        4.6411966514
 O        -9.8348657006        9.2200146217        3.9155140883
 O        -6.2777627801        6.8576244589        5.9135214286
 C        -5.1328807269        7.6281721756        3.3652282728
 C        -5.1720261209        6.4468735282        2.4623013670
 C        -3.8000716415        5.6693963734        2.0503364585
 C        -3.9967547495        4.0748441906        2.0982198174
 C        -5.2455218839        3.4468033054        1.5533778285
 O        -6.1847169937        5.8239699521        2.0378951970
 O        -3.2558427653        3.3099780645        2.7138389485
 C        -3.4082612508        6.0059547430        0.5104070226
 C        -2.4720605133        6.1084221983        2.8937921615
 C        -6.1164884963        2.7711223615        2.7257635165
 C        -6.2412303287        1.3098970310        2.2393511064
 C        -7.6542922343        0.6843808015        1.9213599095
 C        -7.7207500249       -0.2050903316        3.1448464629
 C        -7.2019068478       -1.5935232146        3.0046416617
 C        -8.8944983371        1.6617780044        1.9522430039
 C        -7.4460559118        0.0456589017        0.5418098262
 O        -5.2606721006        0.5901432562        2.3458864672
 O        -8.0143111487        0.2933689118        4.2020573660
 C        -7.3821525828       -2.3696854224        4.3458586722
 C        -6.1574442593       -3.3988143432        4.3424122357
 C        -4.8627756801       -2.9984896689        5.1632352242
 C        -4.0144818086       -2.1194211214        4.1835607605
 C        -3.5674946620       -2.8302358321        2.9286024917
 O        -6.1900670028       -4.4116607438        3.7145211396
 O        -3.4416250048       -0.9891546226        4.4664705926
 C        -5.0136293429       -2.2551222391        6.4563473517
 C        -4.1057283434       -4.4671167085        5.4179315168
 C        -1.9032344953       -2.7937827694        2.8643690662
 C        -1.2271309837       -1.5508963817        2.3215646137
 C         0.3497260995       -1.3310406025        2.3017528058
 C         0.7966952068       -2.4671252734        1.2431279063
 C         2.1694935573       -2.6519824373        0.7163671727
 C         0.6570734127        0.0214023736        1.5819398476
 C         1.0163494514       -1.3559906581        3.7215531810
 O        -1.8694307369       -0.6210401714        1.8685853811
 O        -0.1083583336       -3.1503882700        0.6795603366
 C         2.3443537810       -3.0695544404       -0.8258271698
 C         2.0940067847       -1.7465630380       -1.7505448786
 C         2.6318787142       -1.7196179199       -3.1336696951
 C         4.1432627961       -2.2423906956       -3.1069081005
 C         4.7302187093       -3.0821970700       -4.2513843996
 O         1.2898414838       -0.9250628085       -1.3301616301
 O         4.8927482747       -1.7777027265       -2.2834787870
 C         1.7453887814       -2.6808974518       -4.0179683461
 C         2.5876926079       -0.2249015773       -3.6095330611
 C         6.2970566307       -3.2637186259       -4.3113298279
 C         6.8424088771       -4.6436488484       -4.5394439175
 C         8.2952120323       -4.7973755180       -5.1061225970
 C         8.4673646450       -4.1254607971       -6.4098084322
 C         9.9437614031       -4.0938081490       -7.0670662598
 C         9.3529540707       -4.1343930066       -4.1677883505
 C         8.4979790379       -6.2351018121       -5.3864918940
 O         6.3781010397       -5.6542767413       -4.1061152339
 O         7.6147869766       -3.7139207278       -7.1964551952
 C        10.2394510701       -3.7713112398       -8.5244342874
 C        11.5577031038       -2.8202075525       -8.5152524587
 C        12.6400507546       -3.3614112037       -9.5844026770
 C        12.1515949044       -3.8478746836      -10.8247783952
 C        10.9989247968       -2.9140029875      -11.5382981045
 O        11.6008072789       -1.7272189047       -7.9983176857
 O        12.5964988059       -4.7594933970      -11.4665068714
 C        13.8048425171       -2.2342642879       -9.7789530457
 C        13.3941647831       -4.5222180858       -8.6310116084
 H       -10.0231122178       10.4659201942        5.8236291739
 H        -8.4518604731       10.5704789326        6.4472643470
 H        -8.7624331534       11.2247764687        4.8295740871
 H        -7.1751033279        8.5704531857        3.2388833445
 H        -5.8042602289        9.1124584086        4.5229325710
 H        -9.2103254992        6.7428090213        7.2052882151
 H        -9.7302838460        8.4705929101        7.2378468798
 H        -7.9869359716        7.9240650315        7.5326996334
 H        -9.8570596267        7.1753123563        3.9628772537
 H        -8.3283964800        6.2775185106        4.0715572801
 H        -9.5122069584        5.8379572611        5.2267791027
 H        -4.6065710464        8.4489708803        2.8650269125
 H        -4.6583604790        7.3382322503        4.3578713004
 H        -5.7899006645        3.9958347413        0.8759344898
 H        -4.9502370307        2.4577774270        1.0363540477
 H        -3.2660347434        7.0802896910        0.4300903236
 H        -4.2910435269        5.6911016197        0.0113782211
 H        -2.5970742369        5.5490555551        0.1221493213
 H        -1.7165325790        5.3701858094        2.7889069979
 H        -1.9798498672        7.0896111375        2.8118090762
 H        -2.8468163576        6.1696881733        3.9434488391
 H        -7.0586281736        3.3324682471        2.9254267312
 H        -5.6481137197        2.7091357071        3.8331206102
 H        -7.4700239445       -2.1211710028        2.1420436055
 H        -6.1426024541       -1.5141340655        2.9865478259
 H        -9.0822690905        2.0295926736        2.9246165988
 H        -9.8287514224        1.1386883153        1.6161405140
 H        -8.7795284044        2.4903650525        1.3580718640
 H        -6.8803897694       -0.8384376545        0.6034995627
 H        -8.4484406825       -0.0459768864        0.0750194364
 H        -6.8532355405        0.6818172810       -0.1467383981
 H        -7.2916711006       -1.6794230675        5.1079879916
 H        -8.2932684383       -3.0322761527        4.4028192250
 H        -4.0927410296       -3.8055004483        2.9574650678
 H        -3.9627002660       -2.1931459027        1.9702692164
 H        -4.0998490201       -1.9619722267        6.8614490818
 H        -5.6719382997       -2.6625142489        7.1709102735
 H        -5.4853912136       -1.2886666924        6.1977639759
 H        -3.1104588275       -4.3470583426        5.8688812203
 H        -4.7867733196       -4.9479992190        6.2232327236
 H        -3.8990675429       -5.1105126756        4.6605448997
 H        -1.5519215428       -3.5594988051        2.1359127814
 H        -1.5095575095       -3.1010028080        3.7822124016
 H         2.8057938965       -1.7737978312        0.9328343603
 H         2.5140575113       -3.4201401397        1.4674701958
 H        -0.0046154092        0.8389248832        1.9592580844
 H         0.6560434757       -0.0635324711        0.5314217061
 H         1.5809957505        0.4445045473        1.8589679150
 H         0.3915012820       -0.6735072902        4.3065311698
 H         1.0745363962       -2.3268041410        4.2135574031
 H         2.0387788186       -0.9206698806        3.6752938085
 H         3.3286434024       -3.3410739135       -1.0319044427
 H         1.6387271292       -3.8815739111       -1.1016146093
 H         4.4288543295       -4.1710483258       -4.0738971146
 H         4.2530784053       -2.8006027861       -5.1557431204
 H         0.7189236353       -2.5910793329       -3.6482646841
 H         2.0543770414       -3.6951031061       -3.8685266450
 H         1.7708703242       -2.2218203366       -5.0493795310
 H         2.7265855042        0.4257152846       -2.7565976939
 H         3.1564178504        0.0184028786       -4.4873801025
 H         1.5363886235       -0.1662622018       -3.8807496163
 H         6.6362881144       -2.9004202244       -3.3889830712
 H         6.6596786028       -2.5405127351       -5.1225491364
 H        10.5134699692       -3.4022327150       -6.3726449082
 H        10.3320257321       -5.1538811232       -6.8233578234
 H        10.1301109807       -4.7928853847       -3.6656478251
 H         8.8731309022       -3.6049737552       -3.2909111059
 H         9.9904673520       -3.2871299708       -4.4642950711
 H         8.3588865125       -6.7938849567       -4.4772543797
 H         7.5698327656       -6.6237338822       -5.9388875280
 H         9.4317448339       -6.4474545479       -5.8723358298
 H        10.3965005257       -4.7578719469       -9.1169845595
 H         9.4372247914       -3.2029375729       -8.9662696238
 H        11.6614134998       -2.5589806284      -12.3577327594
 H        10.0919010651       -3.4033391213      -11.9226904977
 H        10.7695067321       -2.1138176841      -10.8891607299
 H        14.6515877003       -2.6469279184      -10.3120141614
 H        14.1547775854       -1.9246957085       -8.8191549265
 H        13.2409099661       -1.4912933138      -10.2719869413
 H        14.2384107320       -5.0921376591       -9.1018358978
 H        13.8595013175       -4.0389026295       -7.7585648493
 H        12.6319236208       -5.2299681156       -8.2379093682
 Na       -3.0434326342        0.8809367728        3.0279161283
