155

 C        -0.4548223161       -7.8057934279       -0.0618728318
 C        -1.3573344129       -6.6416391089        0.3042975070
 C        -2.2425146050       -6.7790080876        1.7323197490
 C        -2.6932405688       -5.4120535492        2.3504747902
 C        -3.8891720916       -4.7952701891        1.5252391495
 C        -3.3917285133       -7.7151016004        1.0917862820
 C        -1.5706442356       -7.5700698624        2.8998187956
 O        -1.5913845263       -5.6868379604       -0.4242745915
 O        -2.0615146799       -4.9636845973        3.2995948756
 C        -4.4310845466       -3.4669138662        2.1667764929
 C        -3.4668516014       -2.3364105449        2.4429960654
 C        -3.9208576041       -0.9447870758        3.0542046538
 C        -3.6444436909        0.2438586490        2.0733580749
 C        -2.1953461489        0.5803707792        1.6696589810
 O        -2.3046897403       -2.5322896476        2.1541881624
 O        -4.6282129768        0.7666852271        1.5757363104
 C        -5.4352692935       -1.1259711858        3.1959415494
 C        -3.2539694177       -0.7050254469        4.4431304952
 C        -2.2067617199        1.7846784167        0.8014629173
 C        -0.7441469976        2.0518662560        0.3211846969
 C        -0.5290939926        3.2457575439       -0.6224979209
 C         0.3893472279        4.2641021256        0.0879707794
 C        -0.0829843156        5.6796650661        0.4279765407
 C         0.0112716850        2.6844298245       -2.0011164358
 C        -1.8328767758        3.9380910754       -1.1091141549
 O         0.1965170574        1.4083205213        0.7033994639
 O         1.5215798628        3.9443575880        0.3332527884
 C         0.4615124484        5.9593981069        1.7967472633
 C        -0.0820047768        5.0193113854        2.8300343290
 C         0.3917558563        5.0651334145        4.3016062903
 C         1.9314383152        4.7212186095        4.2982539179
 C         2.3178098722        3.3845888700        4.9445226679
 O        -0.8356056920        4.0838582007        2.4405156686
 O         2.6710387617        5.4553175657        3.7160128961
 C         0.3650195577        6.5733875993        4.7257035480
 C        -0.5993311412        4.2091398636        5.0911439379
 C         3.7814553270        2.9601138658        4.7810835867
 C         3.9966651222        2.6610447931        3.2940788702
 C         5.4530387735        2.6031599829        2.7824781242
 C         5.6090428514        1.8961260942        1.3613983728
 C         6.5789532149        2.2652736040        0.2008095334
 C         5.9784338641        4.1353370793        2.6388243890
 C         6.3092754730        1.7258864129        3.7852969092
 O         3.0409809779        2.5606766724        2.5810275729
 O         4.9139614136        0.8887020821        1.2538456747
 C         6.2239557455        1.3896083709       -1.0157894135
 C         4.7952199350        1.6181045563       -1.4900157583
 C         4.1698161376        0.6628133923       -2.5254956841
 C         3.0673043866       -0.2416116714       -1.8456193581
 C         2.3573441094       -1.3310779763       -2.6703490116
 O         4.1024887257        2.5203357984       -1.0288349845
 O         2.7671917617       -0.1948194318       -0.7002211871
 C         3.5317862217        1.4905658815       -3.6368446685
 C         5.3203269345       -0.1929643934       -3.2411320235
 C         1.0144483182       -1.7117079298       -1.9662097928
 C        -0.0781843174       -2.1652024045       -2.9563708688
 C        -1.5647693532       -2.3086001515       -2.5260405339
 C        -2.1104478645       -0.9922709774       -3.0252421061
 C        -2.4159458022       -0.8548949612       -4.4791846975
 C        -2.2026286152       -3.5772752752       -3.2844938378
 C        -1.8193186143       -2.5015343122       -0.9408564740
 O         0.1646343093       -2.1253962399       -4.1153620348
 O        -2.2860957716        0.0234251600       -2.3520711996
 C        -3.9041394752       -0.7814165250       -4.7257393000
 C        -4.2670677022       -1.1081266944       -6.2228122816
 C        -5.4389590651       -2.0185513189       -6.5517325789
 C        -5.2112754832       -3.4013645391       -5.7422841072
 C        -4.7395029321       -4.6984897490       -6.4582595879
 O        -3.4735190609       -0.7235274098       -7.0738656216
 O        -5.3861643107       -3.4774316009       -4.5417360920
 C        -6.8115528999       -1.3973958964       -6.1253134975
 C        -5.4428419696       -2.3061188289       -8.0857850562
 H        -0.0710312337       -7.6184699700       -1.0621865471
 H         0.3075113839       -7.8532347266        0.6573189445
 H        -1.0141463581       -8.7372925404       -0.0672930473
 H        -3.4717331329       -4.5980480369        0.5494380728
 H        -4.7374227007       -5.5574701586        1.5318735400
 H        -3.8161547874       -7.3236988451        0.1271708564
 H        -4.2511331887       -7.8507805050        1.7433577571
 H        -2.9745926973       -8.7594228953        0.8282110883
 H        -0.8769234845       -6.8423206394        3.4447254120
 H        -2.3235815906       -8.0099793835        3.5261832917
 H        -0.8844569849       -8.3346099636        2.5349302474
 H        -5.1382396745       -3.0929844604        1.4555985915
 H        -5.0129441267       -3.7299359962        3.0528591416
 H        -1.5132915389        0.6247530363        2.4457760282
 H        -1.9364508328       -0.2533610390        1.0402410032
 H        -6.0222311014       -0.2154254212        3.2068502037
 H        -5.5252281021       -1.7563465118        4.0327108882
 H        -5.8440196316       -1.6704513352        2.3053732098
 H        -3.8368820389       -1.2573398472        5.1673738637
 H        -2.1987892115       -1.0646141713        4.5049027032
 H        -3.2365829478        0.3783752349        4.6906948848
 H        -2.5252619154        2.7270919780        1.3717667949
 H        -2.8571755100        1.5324237374       -0.0494822558
 H         0.3992338214        6.3537636215       -0.1958665985
 H        -1.1867740653        5.7403635668        0.4520963224
 H         1.0103728640        2.2973721779       -2.0470617318
 H         0.0389279311        3.4482672057       -2.7729288282
 H        -0.5492929128        1.8535347182       -2.5203415953
 H        -2.3333879626        3.2983709185       -1.8697595937
 H        -2.5709347946        4.3250620556       -0.3677179604
 H        -1.5376497777        4.8624402240       -1.6327420614
 H         1.5470294759        5.9573953573        1.7343821962
 H         0.1497316239        7.0055689673        1.8764484857
 H         2.1768224377        3.4883575832        6.0567599255
 H         1.6290995537        2.6425489205        4.5868396198
 H         1.2097091005        6.9353783345        4.2074383228
 H         0.5946682301        6.6836190107        5.7727486572
 H        -0.5956719788        6.9966345003        4.5106757375
 H        -1.5110027682        4.7311518649        5.2547238471
 H        -0.8550005446        3.3185288473        4.5583818358
 H        -0.3272987731        3.9841062051        6.1331677975
 H         3.9802258833        2.0238459079        5.3369241158
 H         4.3844294613        3.6845003083        5.3079762793
 H         6.4494697088        3.2531128985       -0.1407461681
 H         7.6413673466        2.2445194614        0.3908119241
 H         7.0156928561        4.0816107677        2.2389505181
 H         5.8768718493        4.6483030157        3.5451041956
 H         5.3055358799        4.6514608557        1.8665853665
 H         7.3312174525        1.7483018836        3.4402757141
 H         6.1401268467        2.1197872167        4.7497502693
 H         5.8678161272        0.7050201607        3.7727836218
 H         7.0472330707        1.5988295608       -1.7860779206
 H         6.1811235032        0.3343739318       -0.8271644054
 H         2.1403275487       -1.0653035528       -3.6616305832
 H         2.9556172867       -2.1866691559       -2.6651952270
 H         2.7701543818        2.1253171255       -3.1919178102
 H         3.1727216654        0.9559082448       -4.4569337164
 H         4.2179279211        2.2558705191       -4.0506927659
 H         4.9117651906       -0.6676454095       -4.1893750867
 H         6.0478082593        0.4846227462       -3.5428579608
 H         5.7246316649       -0.9635646683       -2.6369632954
 H         0.5672747703       -0.8311889269       -1.4789298708
 H         1.1879174223       -2.3593169009       -1.1628665520
 H        -1.9829630186       -0.0101676069       -5.0184608069
 H        -2.0306270487       -1.7100303928       -5.1350422104
 H        -1.9327484304       -3.6119399255       -4.3481865046
 H        -3.1858990096       -3.3515019005       -3.5094049329
 H        -1.9733004169       -4.4174081343       -2.6921873284
 H        -1.3303097362       -1.6211738925       -0.4023765511
 H        -2.8242255714       -2.4836006632       -0.7489522303
 H        -1.4724089051       -3.5111370778       -0.7794676145
 H        -4.4727093341       -1.3326854086       -3.9503963946
 H        -4.1520458008        0.2374110618       -4.4096843880
 H        -3.7367348042       -4.4690187965       -6.8027866241
 H        -5.0259075401       -5.5505650218       -5.8212747511
 H        -5.3520942062       -4.7447487574       -7.3959143977
 H        -7.5594490615       -1.4591823287       -6.9280749308
 H        -6.8524879098       -0.2997812602       -6.0126829434
 H        -7.1241525271       -1.9078780524       -5.2215495650
 H        -6.0959668129       -3.2121793860       -8.3155367081
 H        -5.8609009150       -1.3919884671       -8.5468724151
 H        -4.4056077146       -2.3870238946       -8.3973874905
 Na        2.4785227401        1.8087586149        0.4408668916
