155

 C        -8.8299078198       10.4104652402        4.0993398192
 C        -9.0124143909        8.8897538098        3.8110435738
 C        -8.3358620715        7.9776013939        4.9871697248
 C        -6.7640860781        8.1843489411        5.0939986257
 C        -5.9282081159        8.0988001385        3.7124445335
 C        -9.1290688958        8.4397757689        6.3304070639
 C        -8.4216036329        6.4237927126        4.7094692284
 O        -9.3816741185        8.2832582253        2.7979748465
 O        -6.1556934233        8.4787503069        6.0631604103
 C        -4.4442401082        7.5040267409        3.5669575763
 C        -4.4880466680        5.9587957981        3.7118495645
 C        -3.3943142277        5.0861590405        2.8465404940
 C        -3.9396906901        3.6889612460        2.6787604492
 C        -4.6689234186        3.3445071899        1.4592436347
 O        -5.1497149854        5.5407709166        4.5558582565
 O        -3.6258058849        2.9398118532        3.5870910673
 C        -2.8924738095        5.7745635464        1.5490251687
 C        -2.2022023404        5.2944006590        3.9084667512
 C        -6.0321822306        2.7760740228        1.8636591788
 C        -6.2316042390        1.3241138668        1.9755896553
 C        -7.7313612635        0.7445210565        2.1969912059
 C        -7.7269225929       -0.0795368608        3.4868323052
 C        -7.0867590422       -1.5168718727        3.5600984813
 C        -8.7058952977        1.9185982272        2.5139089063
 C        -8.1050822099       -0.1609471239        1.0158172375
 O        -5.3093354723        0.5240019655        1.8593945450
 O        -8.1896890992        0.3753599897        4.5110699162
 C        -6.8636254416       -2.0725469581        5.0515697174
 C        -5.7126411070       -3.1193307299        5.0624234795
 C        -4.3651532748       -2.5366844324        5.6667225478
 C        -4.0137094275       -1.6246394460        4.4734155993
 C        -3.5410584027       -2.1014481144        2.9767194727
 O        -5.7631410960       -4.2191706369        4.6140859462
 O        -4.1670971857       -0.4300890323        4.7390935083
 C        -4.4841122400       -1.6635418034        6.9151261688
 C        -3.4909760901       -3.6468242183        6.1369593301
 C        -2.0591866907       -2.4357310818        3.0741599859
 C        -1.1521293856       -1.3030399238        2.6983607741
 C         0.3981430694       -1.5829540577        2.1797145794
 C         0.3925690732       -2.8948254561        1.1005309113
 C         1.9169472171       -3.3095550313        0.3939794443
 C         0.8912414524       -0.3850248399        1.4159078469
 C         1.1894798557       -1.8561365963        3.5268077621
 O        -1.6103988217       -0.2112010161        2.5025127286
 O        -0.6392188742       -3.5922775799        0.8621533922
 C         1.8536352439       -3.5526423245       -1.1182129622
 C         1.9684479818       -2.2201374659       -1.9309233446
 C         2.2596144767       -2.3194758766       -3.5212959539
 C         3.9544550850       -2.4186967226       -3.4744389252
 C         4.8846588807       -2.1923236417       -4.7012277144
 O         1.6928882588       -1.1558900477       -1.5335813159
 O         4.4435636841       -2.6906387899       -2.3897765652
 C         1.8415905012       -3.4534986886       -4.3132941961
 C         1.8179271975       -1.0041924401       -4.2190805344
 C         6.3232364611       -2.9294999557       -4.6806692455
 C         6.5078274404       -4.3970254468       -5.2059774243
 C         7.9783842435       -4.8701648453       -5.3427464951
 C         8.5175533671       -3.8156145178       -6.6468022927
 C        10.0296724573       -3.5814594743       -7.0578058647
 C         8.8754462614       -4.5672692191       -4.1250497224
 C         8.0302712446       -6.2790759511       -5.8123944315
 O         5.6411652942       -5.2104211500       -5.3690176077
 O         7.7136106498       -3.2628379772       -7.3407114084
 C         9.9969920768       -3.4038501415       -8.5410885277
 C        11.2803291846       -2.6163635108       -9.0062315039
 C        12.3882540080       -3.3536823103       -9.7343440404
 C        11.9187294959       -3.7513523792      -11.2886287844
 C        10.6436849844       -2.8297329404      -11.7687029308
 O        11.2726229279       -1.4163117205       -8.9063524217
 O        12.3493051565       -4.6768377302      -11.9806305129
 C        13.7900470561       -2.5655193917       -9.6965361344
 C        12.7075743786       -4.7378847912       -8.9489168416
 H        -7.9731795305       10.9272649299        3.5396589415
 H        -9.7400130118       10.9666609993        3.9722198171
 H        -8.6068113143       10.5494143027        5.1199525005
 H        -6.5599326666        7.6400408137        3.0301655562
 H        -6.0153113236        9.1387985988        3.1942261169
 H        -8.8324050777        7.6692544846        7.0227182937
 H       -10.1643147412        8.3086167538        6.2290288936
 H        -8.9165574613        9.5139211647        6.5854955387
 H        -9.2496539464        5.9643666366        5.3330402609
 H        -8.7274370407        6.2901716013        3.6735647163
 H        -7.4244645179        5.9549383432        4.9368162754
 H        -4.2172861336        7.8320541018        2.6232443971
 H        -3.8076118574        7.9970667803        4.2995705006
 H        -4.8043879588        4.0597733707        0.6844353336
 H        -4.1621023143        2.5102784006        0.9777126068
 H        -1.8882604178        6.0536338944        1.3071996538
 H        -3.5703066082        6.6488917065        1.3719392571
 H        -3.2456799023        5.0199076197        0.7287771114
 H        -1.3820134987        4.6453569285        3.7039217282
 H        -1.9742208834        6.3347145396        3.9374331353
 H        -2.5238393492        4.8940729234        4.8920010058
 H        -6.7218935433        3.2057633715        1.0838427541
 H        -6.6694941039        3.3785814054        2.6553939655
 H        -7.5255150417       -2.2972261388        2.9957053842
 H        -6.0505477910       -1.3401747472        3.0818997286
 H        -8.2524458708        2.4540223769        3.3499575886
 H        -9.6762511872        1.7095313016        3.0114275950
 H        -8.8489479175        2.5650133808        1.6023333968
 H        -7.3874668542       -0.9864389487        0.8009081339
 H        -9.0201134541       -0.7105691939        1.2548548360
 H        -8.1695916795        0.3992034299        0.0776528654
 H        -6.7437057748       -1.3385248030        5.8998806473
 H        -7.8463959451       -2.5289109976        5.4686122469
 H        -4.2288281579       -2.9840413067        2.7885617257
 H        -3.6459925073       -1.2167323611        2.3363921755
 H        -3.4909772937       -1.1123792858        7.1228869644
 H        -4.6508238705       -2.0264763566        7.9206031991
 H        -5.1653690773       -0.8725714458        6.6766769444
 H        -2.5011993326       -3.2226738639        6.3407661017
 H        -3.8155469965       -3.8973961602        7.0799522058
 H        -3.5144006347       -4.6581917114        5.6219719774
 H        -1.7153756473       -3.3183217497        2.3442216371
 H        -1.8463802362       -2.8235615362        4.1302518075
 H         2.5708136515       -2.4368323144        0.5808944028
 H         2.1773612307       -4.0990046638        1.1283768037
 H         0.3465335608        0.4968389600        1.5423300600
 H         1.0370989218       -0.4667386625        0.3507501050
 H         1.8020373854       -0.0045558296        1.9230017049
 H         1.0958577025       -0.9949304750        4.1585514789
 H         0.5661795941       -2.5588695833        4.0935447847
 H         2.2276873434       -2.1322889666        3.5021117773
 H         2.6295743353       -4.1700659529       -1.5019244951
 H         0.8417768511       -3.9499906327       -1.4242926277
 H         4.4109930751       -2.5132947301       -5.6402278940
 H         5.0999565277       -1.1667029726       -4.6994995510
 H         0.9837799950       -3.9832778450       -3.7960268594
 H         2.6951938009       -4.2148744342       -4.4542806740
 H         1.5854835730       -3.1821339333       -5.3172849092
 H         1.5592172942       -0.2097626624       -3.5129003732
 H         2.6141040086       -0.5289382334       -4.8596550397
 H         0.8608894470       -1.1572554182       -4.7239453851
 H         6.4771723110       -3.0451895792       -3.6693267755
 H         7.1174289593       -2.3082486593       -5.1119513790
 H        10.5247666579       -2.6551640039       -6.6841154739
 H        10.5436488441       -4.4925304720       -6.7977831261
 H         8.3206395891       -4.6251614809       -3.2380899358
 H         9.2001404891       -3.4815783203       -4.0906491594
 H         9.7885582413       -5.1970611365       -3.9627283711
 H         8.2635407374       -6.9491762584       -4.9025594953
 H         7.1029747209       -6.5581616480       -6.2278956978
 H         8.8342343951       -6.5265367826       -6.5019567177
 H         9.5610156473       -4.2893613938       -8.9969702864
 H         9.3468743985       -2.6434948108       -8.7252490502
 H        10.4921677109       -3.0334367195      -12.7654909603
 H         9.8001164992       -3.2306944849      -11.2514944222
 H        10.9117486194       -1.7651049950      -11.5960599255
 H        14.3964374212       -3.1943946349      -10.3309703800
 H        14.1844886747       -2.1248758766       -8.7130792931
 H        13.5164150100       -1.7693151253      -10.3918406404
 H        13.2445959604       -5.4775239847       -9.6078440369
 H        13.2978410617       -4.5675996252       -8.0912539086
 H        11.8245221099       -5.2272445772       -8.5756261356
 Na       -3.4308322055        0.8838115394        3.0194516930
