155

 C        -8.4610700530        8.4839688164        1.2300685996
 C        -7.7624403962        7.8288516265        2.3519025828
 C        -7.6799148616        8.6379830526        3.7008352463
 C        -6.1535821249        8.6321156749        4.1564991478
 C        -5.2651822338        7.4464933490        3.9650255261
 C        -8.0829203975       10.0785436543        3.6042196701
 C        -8.4579145942        7.7886109195        4.6808290276
 O        -7.2587289566        6.7490734819        2.1841986388
 O        -5.6347932269        9.7530936620        4.2931390020
 C        -4.5621886409        7.1879474984        5.3388853821
 C        -4.1544924502        5.5709942678        5.4063760015
 C        -2.9273801146        4.9661382532        4.5995217473
 C        -3.3871787793        3.5889538228        4.0100517966
 C        -4.4748500918        3.6061913609        2.8332919882
 O        -4.8761756497        4.7644373959        5.8646656189
 O        -2.7945648418        2.5169560428        4.2075354535
 C        -2.4088046558        5.8752716403        3.3726806541
 C        -1.8569268760        4.8933501677        5.6441625986
 C        -5.7917420146        2.8622545026        3.3968212254
 C        -6.2532443945        1.5234953901        2.9269992831
 C        -7.8068978316        1.0522569038        2.9965028558
 C        -7.8239448908        0.7125615614        4.5923112223
 C        -7.0720932964       -0.6643910235        4.9918097023
 C        -8.7863828062        2.2373013950        2.5573625908
 C        -7.9518005621       -0.0797028826        1.9668979754
 O        -5.4671805300        0.7011526650        2.5387700081
 O        -8.3342842838        1.4210242348        5.4424238387
 C        -6.1944664770       -0.7402368279        6.2842990295
 C        -5.5071750608       -2.0331724823        6.6791485672
 C        -4.0037436842       -2.1246252719        6.9492922386
 C        -3.4327036719       -1.7429443235        5.4932680061
 C        -2.8445720702       -2.7636352831        4.5071853633
 O        -6.0831232609       -3.1254053795        6.6947255679
 O        -3.6254762141       -0.6201192877        5.0750693456
 C        -3.6397927819       -0.8063642847        7.8397523341
 C        -3.2727706072       -3.2880883925        7.5509593211
 C        -1.3775841900       -2.8211883856        3.9450358068
 C        -0.9570784783       -1.8050498361        3.0034616971
 C         0.4161179448       -1.9315110427        2.2410533286
 C        -0.0824103465       -2.4180471312        0.6279347728
 C         1.0665112979       -2.9651679872       -0.2285702542
 C         0.9069829866       -0.5405981393        1.7514499873
 C         1.5546369406       -2.6573537515        2.9202361054
 O        -1.8397660654       -1.0926361821        2.5325115268
 O        -1.1761285052       -2.1935702838        0.1817108218
 C         0.6546665445       -3.3105025280       -1.6799434945
 C         1.8500822364       -2.9205549851       -2.7626867759
 C         2.1990363542       -3.7848397817       -3.9689451376
 C         3.7013794516       -3.5025901977       -4.2737537486
 C         4.1795888473       -2.3142233097       -4.9897226709
 O         2.3537293847       -1.8747848319       -2.5513158154
 O         4.4406956555       -4.3513585847       -3.8143746273
 C         2.1055087845       -5.3034689371       -3.8040826693
 C         1.2022627872       -3.4819531034       -5.1534333914
 C         5.6418539929       -2.7042631658       -5.3414642462
 C         5.6323836376       -3.6840425234       -6.5107916524
 C         7.0555073735       -4.4097510902       -6.6478615535
 C         7.9755830963       -3.2847085630       -7.2971023283
 C         9.4093274776       -3.5399155963       -7.5216116917
 C         7.8139351909       -4.8919613963       -5.3661572008
 C         7.0231110001       -5.5743428024       -7.6677923920
 O         4.7564257197       -3.8916952700       -7.3151854397
 O         7.4298258575       -2.3372359516       -7.8270338538
 C         9.7721751672       -2.9352971173       -8.8732692236
 C        11.1643283163       -2.6967536269       -9.2665854779
 C        11.7664413970       -3.5097423298      -10.4291908105
 C        10.8565294597       -3.2187899692      -11.7460457965
 C        11.6812719596       -2.9339331371      -13.0007960502
 O        11.7925464875       -1.7529261413       -8.7645777251
 O         9.6444810533       -3.2085328169      -11.6566000805
 C        13.2131623739       -3.0439730250      -10.6249218823
 C        11.6646824355       -5.0285434870      -10.0790215045
 H        -8.2390694629        7.8967143745        0.3763588933
 H        -9.6029047823        8.6427131554        1.2512095874
 H        -8.0741826910        9.5458133887        1.0454103853
 H        -5.9807461533        6.5351794072        3.8044218233
 H        -4.6157103338        7.9003356804        3.1724283834
 H        -7.9840234314       10.5396868148        4.6564220433
 H        -9.1858323258       10.3325458959        3.3572571409
 H        -7.5721780977       10.6976003159        2.8891185227
 H        -9.5086058764        7.9974304825        4.5784989754
 H        -8.3195033761        6.7282595573        4.6863071210
 H        -8.1664017157        8.1407468534        5.7057649827
 H        -3.6416222348        7.6894842684        5.2878553501
 H        -5.2528661807        7.6195903390        6.0762597168
 H        -4.7236936138        4.5809619234        2.4463132852
 H        -3.9185713175        3.0064826807        2.0299075571
 H        -2.2149520255        6.8722900400        3.7690723435
 H        -3.1007850317        5.8720769178        2.6288896218
 H        -1.5062567577        5.5039763013        3.0068852288
 H        -1.1228400620        4.1904030579        5.2418903270
 H        -1.5027257859        5.8613314879        6.0437693205
 H        -2.2728044640        4.2675395383        6.4607696671
 H        -6.5971597110        3.6202380004        3.0723720488
 H        -5.6169369993        2.7995714260        4.3579456767
 H        -7.9549801948       -1.2215844522        4.9768497156
 H        -6.4417885843       -0.9615471006        4.0676313954
 H        -8.6599972130        3.0202267872        3.3789906952
 H        -9.7728524131        1.8886399821        2.3031579677
 H        -8.4581222250        2.5598588741        1.5118954085
 H        -7.2358027689       -0.9225670422        1.9918435234
 H        -8.8447374863       -0.6761237596        1.9740623113
 H        -7.8983458934        0.3365017270        0.9763272759
 H        -5.3848519776        0.1043013902        6.3447537273
 H        -6.8506371577       -0.5865133199        7.2348557963
 H        -3.0377264542       -3.8903750218        4.7254328378
 H        -3.4442378736       -2.2848093467        3.7205902057
 H        -2.6520610543       -1.0347178709        8.3335889605
 H        -4.3291267207       -0.6645845101        8.6288125778
 H        -3.4920397801        0.0830215819        7.2493709712
 H        -2.2353971998       -3.0542580940        7.4569085717
 H        -3.7070649314       -3.2427258153        8.5655325752
 H        -3.8120817010       -4.1666387933        7.2056063835
 H        -1.3697633372       -3.8604816434        3.4269880330
 H        -0.6280600562       -2.9683664221        4.8149501488
 H         1.9351602150       -2.3939012649       -0.1995056674
 H         1.4454717343       -3.8901861255        0.1505822826
 H         0.6960649050        0.0912856817        2.7375945628
 H         0.2879031569       -0.2031605132        0.8849341906
 H         2.0211414200       -0.5426110881        1.4059403782
 H         2.1288198434       -1.9596112788        3.5329707544
 H         1.2313997487       -3.4524847946        3.6390746625
 H         2.1835184417       -3.1352620157        2.1526281195
 H         0.1201226960       -4.2315068404       -1.6467576319
 H        -0.0827616718       -2.5002215891       -1.8310075352
 H         3.6774633696       -2.1699180819       -5.9900354208
 H         4.0897615037       -1.3353888934       -4.4514964286
 H         1.1391363575       -5.7452611987       -3.6499098698
 H         2.6488767740       -5.7646684205       -3.0272183908
 H         2.5241260805       -5.7618823143       -4.6873885431
 H         0.2950247388       -2.9904720372       -4.9533098553
 H         1.7941293936       -2.9207132473       -5.8756521800
 H         1.0065331835       -4.4547268398       -5.5902159765
 H         6.0813334623       -3.0295510175       -4.4345746054
 H         6.1980120655       -1.8930221449       -5.7916099090
 H        10.0100480826       -3.1153229529       -6.7521647522
 H         9.5288937985       -4.6950365250       -7.5845435371
 H         7.0659791526       -5.5124622656       -4.8725987090
 H         7.9842899472       -4.0736449904       -4.7407727678
 H         8.7411143070       -5.3974883292       -5.6001807982
 H         6.5682291670       -5.2928091421       -8.5515323736
 H         8.0567211467       -5.9047126289       -7.9005669323
 H         6.4782251915       -6.4708625412       -7.3261467063
 H         9.3719664699       -3.6149879866       -9.6427854932
 H         9.1663314909       -2.0804058376       -8.9983431725
 H        12.5611676956       -3.6525602614      -13.1167753912
 H        11.1182942081       -3.0796613378      -13.9579072312
 H        11.9305582913       -1.8597654748      -12.9714931775
 H        13.6949414128       -3.5353072470      -11.4092425631
 H        13.8341063806       -3.3400330966       -9.7700918676
 H        13.2112245049       -1.9760315530      -10.6960120707
 H        11.5951257042       -5.4936134584      -11.1295880483
 H        12.5162179972       -5.4452582765       -9.5470751167
 H        10.7068507854       -5.4385555907       -9.8452776072
 Na       -3.2999890952        0.4085084788        3.0954940243
