155

 C        -7.8028654444        7.6515336737        0.3817106913
 C        -7.5567541975        7.4138763151        1.9404493932
 C        -7.3468748803        8.7162514001        2.8004613283
 C        -6.4010192383        8.3846468648        3.9541037541
 C        -5.7880638840        7.0171159767        4.1049834485
 C        -6.5786941463        9.9359361134        2.0412929766
 C        -8.7502585276        9.1330476399        3.3714208860
 O        -7.9362655406        6.4787899949        2.5564767748
 O        -6.2315941705        9.2023171308        4.7544315888
 C        -4.3444698618        7.0980796760        4.7520047363
 C        -3.8445068046        5.7762419843        5.4251558912
 C        -2.6970084070        4.9219705337        4.9932310052
 C        -3.1879317307        3.6237295539        4.3601405190
 C        -4.1008520335        3.6828652388        3.1582343353
 O        -4.4415319181        5.5391340963        6.4869559557
 O        -2.7182578070        2.5141328879        4.7539637657
 C        -1.8477892344        5.6425225064        3.8483578347
 C        -1.7611437749        4.4675705365        6.1263761665
 C        -5.5967817247        3.4687163618        3.3989106675
 C        -5.9788589601        2.0016411926        3.3258125834
 C        -7.5510676892        1.5792885527        3.7341441909
 C        -7.4207820315        0.8585762430        5.1804166874
 C        -6.4318086333       -0.4306261109        5.3337669664
 C        -8.5979646006        2.7400182101        3.6645097228
 C        -8.1208003011        0.6164432759        2.6914514140
 O        -5.2343345783        1.0926343642        3.0871345924
 O        -8.2242586795        1.1833313617        6.0143578068
 C        -6.0425779029       -0.6319758328        6.7449619279
 C        -5.2698924703       -2.0165490414        6.9963590139
 C        -3.6733486482       -2.1250315798        7.0978351531
 C        -3.0413913891       -1.3586069591        5.9183873370
 C        -3.2893643452       -2.0790877120        4.4995132304
 O        -5.8095061754       -3.0440257554        7.1371656278
 O        -2.4373182094       -0.3237132473        5.9400457394
 C        -3.1981282550       -1.2312001528        8.2847607485
 C        -3.0816607822       -3.5384857041        7.3045979556
 C        -2.1985517818       -2.6133095654        3.5242617037
 C        -1.3375765599       -1.5835632734        2.7729581581
 C         0.0090434378       -1.9982122391        2.3092465932
 C        -0.3521909026       -2.8245016627        0.7948163836
 C        -0.1314678893       -2.3515058126       -0.6302584450
 C         0.9353969499       -0.8417832374        2.0048044977
 C         0.8795846427       -3.0425953926        3.1452108933
 O        -1.7691158925       -0.5395350126        2.3480585187
 O        -1.0590651731       -3.7333596612        1.1556061468
 C         0.3584199683       -3.4216800879       -1.5318462973
 C         1.5457971135       -3.0498881333       -2.5483988977
 C         1.9239188951       -4.1932114717       -3.6292575294
 C         3.2882372556       -4.0199983493       -4.5936392705
 C         3.4794726121       -2.7828602153       -5.3944108555
 O         2.2485342479       -2.0708650220       -2.3520687299
 O         3.9838496174       -4.9825647306       -4.6478103391
 C         2.0629688451       -5.6240716544       -3.0186865453
 C         0.6843462556       -4.6110405967       -4.6914528598
 C         5.1149900156       -2.6022021318       -5.8043196703
 C         5.4425381619       -3.5582634509       -6.9992501790
 C         6.8735373882       -4.0209979872       -7.4586774468
 C         7.9191333367       -2.9165601497       -7.4756763172
 C         9.2059786480       -3.2800020651       -8.2741068719
 C         7.6754906959       -5.0947319491       -6.6304914911
 C         6.6468970206       -4.5358343547       -8.8832427187
 O         4.5831322937       -3.9330126194       -7.7512176568
 O         7.8100006585       -1.8338237441       -6.9448272703
 C         9.6985245708       -2.3205660555       -9.4187300477
 C        11.2236786874       -2.8635738271       -9.7118925063
 C        11.5902439402       -3.7790199011      -10.9748356729
 C        10.9732900915       -2.9424942844      -12.1919337502
 C        11.9432169923       -2.2416026809      -13.1466883772
 O        12.0628458059       -2.5462084455       -8.9042960348
 O         9.7976060709       -2.9536884153      -12.3830127965
 C        13.1317468466       -4.0867479063      -10.9011208831
 C        10.8148472101       -5.0336819748      -11.0717534367
 H        -8.3550711741        6.9987995357       -0.3251576089
 H        -8.0438532519        8.6204598632        0.2054646156
 H        -6.8770226219        7.5323797820       -0.0461139091
 H        -6.3897173540        6.3572332343        4.8768360138
 H        -5.7892204500        6.3819048794        3.1328510274
 H        -6.5679328105       10.7760874933        2.6639379550
 H        -7.1707366194       10.2967528501        1.2468623054
 H        -5.5547396956        9.8852635128        1.8056257026
 H        -9.1978793756        9.7566031502        2.5870786416
 H        -9.6137623316        8.4691744961        3.5995293903
 H        -8.6612235754        9.9236655817        4.1755514902
 H        -3.6749674956        7.2910495263        3.9593606390
 H        -4.3289684059        8.0021910685        5.4033728472
 H        -4.1551847734        4.6555257836        2.7032993329
 H        -3.7249420890        3.0900474110        2.3110000860
 H        -1.5820532398        6.6687875679        4.2346781907
 H        -2.1433468191        5.7331424264        2.7277049717
 H        -0.9220462258        5.0226386808        3.9547531922
 H        -1.2087922332        3.4802576703        5.8728870166
 H        -0.9537789019        5.1212248202        6.2309960129
 H        -2.3709926629        4.3823014596        6.9964754025
 H        -6.2509587222        3.9821238844        2.7521530192
 H        -5.9202137661        3.8780560934        4.4383209089
 H        -6.9967092776       -1.2445559362        4.8426619085
 H        -5.4983011727       -0.1759955909        4.8362406551
 H        -8.3564345052        3.5239814705        4.3068408434
 H        -9.6147067574        2.3606316857        3.8834738005
 H        -8.3834135512        3.0789209145        2.7408778503
 H        -7.4260494645       -0.0115386512        2.0966800050
 H        -8.9339201302       -0.0372630553        3.0710370520
 H        -8.6704763597        1.1801706611        1.9470543504
 H        -5.4681568367        0.1931415441        7.2668738633
 H        -6.9581679929       -0.7053043209        7.4819783273
 H        -3.8768108092       -2.9711380163        4.6949312614
 H        -4.0445012626       -1.4838304901        4.0692495362
 H        -2.5061233873       -1.9041720804        8.8407026464
 H        -4.0338048119       -1.1068902397        9.0075054204
 H        -2.6339961954       -0.3257872270        8.0785808709
 H        -2.0672768685       -3.4737071516        7.6286737372
 H        -3.7183257209       -4.0129236695        8.1168001481
 H        -3.1258095644       -3.9047012685        6.3077915457
 H        -2.6614430622       -3.1986963660        2.8095832174
 H        -1.6924718820       -3.3639735742        4.1387931743
 H        -1.0039735504       -1.9206712927       -1.1451564912
 H         0.6745241098       -1.5436207342       -0.5455440006
 H         0.4263966194        0.0420876778        1.8841350573
 H         1.5189603429       -0.8980879922        1.0881716319
 H         1.6045800787       -0.7117266443        2.8023058153
 H         1.3886577100       -2.3938796128        3.8387609699
 H         0.2786865998       -3.7608056755        3.7472330170
 H         1.6737997337       -3.5486496169        2.6716200090
 H         0.8243361517       -4.2003988220       -0.9234575517
 H        -0.4694548445       -4.0122484017       -2.0494803247
 H         2.8224715301       -2.9702027140       -6.2786862903
 H         3.2283834009       -1.8612361917       -4.8813161715
 H         1.1750814521       -6.1271046905       -2.7540299919
 H         2.6813595105       -5.7067195465       -2.0297471182
 H         2.6309231148       -6.3038993612       -3.6703494449
 H        -0.1776250556       -3.9465070613       -4.5248514115
 H         1.1357797511       -4.4620837858       -5.6895544387
 H         0.3891198357       -5.6590187130       -4.4886293982
 H         5.7612241436       -2.8041441333       -4.8644700123
 H         5.3790939780       -1.6796821587       -6.2188112379
 H        10.0845263488       -3.4284956223       -7.6175460600
 H         9.0402247085       -4.2823915241       -8.7165752211
 H         7.2086694062       -6.1293381617       -6.8874831558
 H         7.4684974327       -4.8464762472       -5.6198762276
 H         8.7550297020       -5.2103144467       -6.8725743753
 H         6.3880951851       -3.6526202115       -9.5935169241
 H         7.5251656364       -5.1081934808       -9.2375518062
 H         5.8042854985       -5.2398305378       -8.9572234907
 H         9.0483243486       -2.4800747115      -10.3001499472
 H         9.6573568382       -1.1880271081       -9.1001453325
 H        11.5333128586       -1.4622565036      -13.7351381851
 H        12.8123790303       -1.8404797943      -12.6948125842
 H        12.2595662595       -2.9808764506      -13.8361892887
 H        13.3892243950       -4.5683849027      -11.8679245885
 H        13.4500311537       -4.5779702417       -9.9206229517
 H        13.6615695741       -3.0913485727      -10.9159205296
 H        11.3099717940       -5.7300938016      -11.8048965890
 H        11.0411945407       -5.5768277069      -10.1668912108
 H         9.7617933143       -5.0337242587      -11.1825288316
 Na       -2.9693365301        0.5357930437        3.8874660397
