155

 C        -7.5244688269        7.2140292948        0.3034275477
 C        -7.6554400198        7.2569366726        1.8068862483
 C        -7.1650770856        8.6419914897        2.3817837172
 C        -6.6278300549        8.4653089945        3.8956805735
 C        -5.7217632901        7.0700909054        4.0699226586
 C        -6.0072479693        9.3254283658        1.6056953587
 C        -8.3522983901        9.7134974596        2.4259119861
 O        -8.1014965728        6.4005184201        2.5327283530
 O        -6.7099566965        9.3799245015        4.6746140419
 C        -4.3905993071        7.5156980431        4.7467224272
 C        -3.8939036411        6.1821704673        5.5360688952
 C        -2.5364414190        5.4136925214        5.1112543855
 C        -2.8709091775        4.1251406021        4.3579725978
 C        -4.0067830837        4.1403741384        3.3021460892
 O        -4.6508258206        5.8033892827        6.4186027549
 O        -2.3012944981        3.0273445364        4.4233945881
 C        -1.5188466514        6.3413545581        4.4270063452
 C        -1.8996612271        4.8197598040        6.4221476107
 C        -5.4695914272        3.7151222916        3.7879748648
 C        -5.7880932213        2.0912074318        3.8748559372
 C        -7.2675601025        1.6285459377        4.2832792641
 C        -7.2887339858        0.8715317723        5.6736734336
 C        -6.6862949827       -0.5736757505        5.7294221035
 C        -8.2107360876        2.8805268566        4.5044524638
 C        -7.8291744300        0.7149917008        3.2073452104
 O        -4.9906079688        1.2992748248        3.5139676960
 O        -7.7109292511        1.3241776900        6.7334857227
 C        -5.6735694375       -0.6413399616        6.8618070739
 C        -5.1380760102       -2.0990129748        7.0272276552
 C        -3.6087485962       -2.2324016309        7.0720967068
 C        -3.1365276809       -1.6159464795        5.6246514708
 C        -3.3986103070       -2.3078661972        4.2611825631
 O        -5.9591308652       -3.0333978008        6.7780720143
 O        -2.7051487385       -0.5019579479        5.6769528451
 C        -3.0336000257       -1.3948469409        8.1562307618
 C        -3.1503154929       -3.8973614363        6.9989373960
 C        -2.1108649444       -2.9895088818        3.6621007048
 C        -1.2646504332       -1.8341768746        2.8347158745
 C         0.0944077242       -2.2903609219        2.0817155305
 C        -0.3025031706       -3.2707804750        0.7581378549
 C         0.1603174709       -2.7307674527       -0.5899631310
 C         0.6714641239       -0.9146632112        1.5834237421
 C         0.8949243719       -3.2396271387        3.1020158606
 O        -1.6032561779       -0.6838687867        2.7679492636
 O        -0.8256804096       -4.3548758680        0.7745922140
 C         0.8196672364       -3.7529505679       -1.4198688686
 C         1.7358083387       -3.2527928895       -2.4928502526
 C         1.9622995367       -4.4372104388       -3.5821709137
 C         3.4651919608       -4.3030379960       -4.4714504941
 C         3.8369075043       -2.9972308422       -4.9886632321
 O         1.8922438818       -1.9729484930       -2.6326541004
 O         3.9852415304       -5.3688201703       -4.6749162360
 C         2.1264642643       -5.8196025665       -2.8851032747
 C         0.8375917367       -4.5817452864       -4.4447660645
 C         5.1722254692       -2.9938532629       -5.7528066993
 C         5.1080018286       -3.4748643734       -7.2308704426
 C         6.5046722614       -3.9790340470       -7.8649650924
 C         7.5178857050       -2.7835878640       -7.5520509341
 C         9.0999132475       -3.1445613543       -7.6829833468
 C         6.7169992932       -5.2919411427       -6.9506403801
 C         6.2975590502       -4.3347877753       -9.3588470423
 O         4.0679052210       -3.5054354852       -7.8996566242
 O         7.2280178991       -1.6262504675       -7.1840334552
 C         9.5564977601       -2.9403805838       -9.1924953639
 C        11.0786480345       -3.0791582485       -9.6636684343
 C        11.1154323278       -3.8110569891      -11.1502131166
 C        10.9961999024       -2.6897555100      -12.2506317175
 C        12.1189554153       -1.7771854966      -12.6104867101
 O        11.9775378749       -2.4107901987       -9.2493547747
 O         9.9180785894       -2.5734229563      -12.8063251303
 C        12.5997030572       -4.4389392932      -11.0824314746
 C        10.2142495781       -5.0156083149      -11.5787170637
 H        -7.6089891974        6.2241310306       -0.2384813585
 H        -8.1894659020        7.8697177004       -0.1918777570
 H        -6.5502117823        7.4192160231        0.0628030982
 H        -6.2828852704        6.2177314569        4.4891579346
 H        -5.3990448943        6.4556379431        3.1442297111
 H        -5.3159702826        9.7523159218        2.3117382885
 H        -6.1183197018        9.9948991961        0.7818932825
 H        -5.3194928700        8.4538108854        1.2792128534
 H        -8.9451703686        9.6665266702        1.5425444648
 H        -9.0943516244        9.5330143168        3.2505934699
 H        -8.0666880758       10.7062792929        2.7418953033
 H        -3.7999256337        8.0898851160        4.0610684750
 H        -4.7751988643        8.2185319835        5.5089315853
 H        -4.2052497137        5.1755619872        3.0473363004
 H        -3.6956659123        3.6943722854        2.3678700765
 H        -1.0761829918        7.1140885035        5.0317958696
 H        -1.9807235952        6.8660743652        3.5103942195
 H        -0.7947722269        5.5596191776        4.0529047198
 H        -0.8222241132        4.5697140787        6.2497620548
 H        -2.0808619062        5.4102852556        7.3032846256
 H        -2.5747029108        4.0104914924        6.6976176839
 H        -6.3023983213        4.1617561738        3.4067802135
 H        -5.5438979979        4.0167305289        4.9667700427
 H        -7.5173969012       -1.3226679027        5.7860676969
 H        -6.2637514989       -0.7380046925        4.7740752807
 H        -7.7278610555        3.4300239892        5.2732696012
 H        -9.2277994769        2.5862071186        4.8406220492
 H        -8.1716812190        3.4963225162        3.6134947223
 H        -8.1483357537       -0.2701218458        3.6398841062
 H        -8.7957497144        1.0982412129        2.8047291233
 H        -7.0900361781        0.4348380392        2.4357132615
 H        -4.8480337593        0.1306693354        6.8881964877
 H        -6.2702379224       -0.3941966869        7.7960897511
 H        -4.1101203325       -3.0318723311        4.4625510397
 H        -3.9589327867       -1.7495858906        3.5758502462
 H        -2.0043123133       -1.6995806204        8.2803782807
 H        -3.6060415897       -1.5592916075        9.0961865780
 H        -3.1576881830       -0.3280445297        7.9666140707
 H        -2.0871031145       -3.8407398157        6.6141165086
 H        -2.9730454285       -4.2461307649        7.9422808550
 H        -3.7836238910       -4.4460755658        6.2590715344
 H        -2.4338005245       -3.7925560946        3.1693297121
 H        -1.4913756243       -3.4640524295        4.4129917675
 H        -0.8323406259       -2.3369659944       -0.9509691641
 H         0.8830303732       -1.8280572940       -0.6526835819
 H         0.0350630769       -0.4242001559        0.9998558007
 H         1.5806053126       -1.0232737353        1.0473682458
 H         1.0803914973       -0.3798554589        2.3348670633
 H         0.4728314675       -3.3641132519        4.1228563155
 H         0.9279947995       -4.2483805937        2.6047864750
 H         1.8986847716       -2.8742941612        3.3230374944
 H         1.3591767035       -4.5192302299       -0.8313273692
 H        -0.0175826931       -4.2885891849       -2.0128040064
 H         3.0426605181       -2.5032463483       -5.5697596056
 H         3.9480756221       -2.4607152992       -4.0599524342
 H         1.2080002601       -6.3748013041       -2.4530995792
 H         2.8127734797       -5.8814745118       -2.0634441856
 H         2.5509313560       -6.4826817846       -3.6832643995
 H         1.0987039757       -5.4045889151       -5.1194262622
 H         0.0637977144       -5.0859992901       -3.8327627685
 H         0.5634738029       -3.6197445659       -4.8224356693
 H         6.0256191539       -3.6680715187       -5.3109762037
 H         5.6358558371       -2.0073571854       -5.7929569214
 H         9.7296733944       -2.5077014064       -7.0604084209
 H         9.3790238720       -4.1371154108       -7.4579195762
 H         5.7146769686       -5.7539119626       -6.7990469923
 H         7.0668001201       -5.1246000551       -5.9057275624
 H         7.3775844643       -6.0791053951       -7.3566094660
 H         6.2632584995       -3.4512444585      -10.0060003286
 H         7.0418849887       -4.9357228302       -9.6771345141
 H         5.3556894654       -4.8245709297       -9.5007531537
 H         8.9718939463       -3.6432746023       -9.7853250434
 H         9.4954029791       -1.9047344582       -9.7135303119
 H        12.0965306656       -0.8816383586      -12.0573633805
 H        13.0585717723       -2.2670565550      -12.3934740135
 H        12.1090545396       -1.3499234832      -13.6291670500
 H        12.6983978788       -4.9156211903      -12.1001459663
 H        12.6862679110       -5.2987698457      -10.4308955163
 H        13.3993369299       -3.7155001017      -10.7722506387
 H        10.7510071868       -5.7362920249      -12.1853364525
 H        10.0568355953       -5.6708445007      -10.6992132588
 H         9.1968399443       -4.7364320477      -11.8665626873
 Na       -2.8669532394        0.8971310880        3.8012268184
