155

 C        -7.7217407012        6.8700530132        0.2357156673
 C        -7.6779490897        7.3293195348        1.7374528127
 C        -7.0339127722        8.6828660914        2.1156848366
 C        -6.5743731894        8.6172102593        3.8486496684
 C        -5.6770193469        7.3000971912        4.1216593320
 C        -5.5847168005        9.0711274407        1.4393495504
 C        -8.1964308887        9.7169511892        1.8773791506
 O        -8.0050034446        6.4905427804        2.5305897373
 O        -6.9341207111        9.4169386422        4.6230264597
 C        -4.3508883470        7.5072044927        4.8799818201
 C        -4.0217389412        6.2442356418        5.5825724098
 C        -2.6649929569        5.4573368122        5.2793605873
 C        -2.8717142940        4.1674683553        4.5016345897
 C        -4.0655728816        4.0011672052        3.6216002965
 O        -4.7857922602        5.6589890508        6.3518458846
 O        -1.9711610251        3.3559525803        4.4033770676
 C        -1.6910769092        6.2977625734        4.3556181741
 C        -2.0413046965        5.3432954715        6.6159475174
 C        -5.3993634674        3.7753603280        4.3127890064
 C        -5.8500641741        2.3359003385        4.1717315033
 C        -7.2862942373        1.9477619297        4.5369057742
 C        -7.0782167585        1.1579056836        5.8531857490
 C        -6.4802942621       -0.2666012819        5.7659364827
 C        -8.3260005360        3.0717182931        4.7208541039
 C        -7.8158594637        1.0081033169        3.4087647612
 O        -5.0063181781        1.4701127642        3.8455602370
 O        -7.3781531744        1.6347343739        6.9128043963
 C        -5.6707152719       -0.7980480542        6.9730604529
 C        -5.1082270411       -2.2258012405        6.7829665155
 C        -3.4828136100       -2.3765182248        6.8011833801
 C        -3.1379474010       -1.6785915260        5.5061885101
 C        -3.3365054540       -2.5780881738        4.1506664379
 O        -5.7650187566       -3.1819718169        6.7190438256
 O        -3.2136212849       -0.4324140517        5.4522075906
 C        -2.7447441764       -1.7083049822        8.0639450009
 C        -3.1486691381       -3.9063377127        7.0061916414
 C        -2.1179298850       -3.1519722066        3.4299778994
 C        -1.2473313960       -2.0364680939        2.7861609183
 C         0.1811381884       -2.3507402313        2.1185742949
 C        -0.2523386839       -3.2064425202        0.8355253814
 C         0.1923721320       -2.7881546588       -0.5720932987
 C         0.9889496583       -0.9554777928        1.8660291323
 C         1.1476440319       -3.3045974902        2.9142975326
 O        -1.6736860463       -0.8798687265        2.6814814292
 O        -0.8600246422       -4.1927874073        0.9961675961
 C         1.0930951954       -3.9516420187       -1.2348720909
 C         1.6694502755       -3.6118133763       -2.6173722142
 C         2.0767537831       -4.7797029535       -3.6274321286
 C         3.3999230617       -4.4719830386       -4.4054033815
 C         3.7061648012       -2.9229257558       -4.8528860184
 O         1.9614756430       -2.5626450384       -2.9670250825
 O         4.2449942720       -5.2860524171       -4.7029524303
 C         2.1239810118       -6.1103360705       -2.9374377505
 C         0.9868834273       -4.6289681673       -4.9640245863
 C         5.0178204440       -2.8170753170       -5.6174193119
 C         4.9418876056       -3.3202584168       -7.1033449563
 C         6.2801161303       -4.0191045406       -7.7673072746
 C         7.4696951833       -2.9102996489       -7.6182951915
 C         8.9604322899       -3.3152581276       -7.9164631060
 C         6.8634800293       -5.4233887446       -7.2633944376
 C         5.8946926759       -4.0870166464       -9.3459138338
 O         3.9484218873       -3.1392010950       -7.7136483591
 O         7.0572154393       -1.7944980703       -7.4819718189
 C         9.1952575931       -2.9941875425       -9.3377869735
 C        10.6506682429       -3.1850089258       -9.8192726596
 C        11.0089324766       -3.8141803782      -11.2077895798
 C        11.0176054560       -2.6350516228      -12.2429107402
 C        12.2143286885       -1.5880807716      -12.2289787770
 O        11.5492764822       -2.6618443933       -9.1725477955
 O        10.0545814235       -2.5063541776      -12.9253660360
 C        12.3883275840       -4.4865490680      -11.1491656053
 C         9.9340523373       -4.7702546965      -11.5172444624
 H        -8.2259817905        5.8993573001       -0.0503117830
 H        -8.1690357865        7.6156559966       -0.3845580100
 H        -6.6991941870        6.7931757304       -0.1961251282
 H        -6.2751630710        6.5216839973        4.6585286564
 H        -5.4790867543        6.6636235806        3.3144298198
 H        -5.1843905178        9.9568706789        1.9677014492
 H        -5.8243154126        9.3506169260        0.3936017627
 H        -4.8990437064        8.3318569208        1.3026962856
 H        -8.2630855558       10.0875642537        0.8356425767
 H        -9.1587594223        9.2583460845        2.0307702159
 H        -8.2310269246       10.4225879484        2.7368682890
 H        -3.4370628322        7.8281383930        4.3376688784
 H        -4.6659438920        8.3215629311        5.5369869632
 H        -4.1198796248        4.7517384365        2.8076330630
 H        -3.8752248512        2.9916929514        3.1376971309
 H        -1.6131047471        7.3545060102        4.7761412294
 H        -2.0066297128        6.3632525710        3.3189892543
 H        -0.7282980452        5.8136110364        4.3774406850
 H        -1.4258541510        4.4493755377        6.3643491329
 H        -1.5321676799        6.2111867822        7.0034398187
 H        -2.7150654420        5.1597793481        7.4309096643
 H        -6.4447064768        4.1924908589        3.9815209901
 H        -5.4169315510        3.8946769208        5.2967566069
 H        -7.4666001308       -0.7361232676        5.7598392116
 H        -6.1560138212       -0.5762153619        4.7198988100
 H        -7.9763677962        3.8328356097        5.4432432772
 H        -9.2637365498        2.5273966308        4.9607481801
 H        -8.6158987320        3.5117274258        3.7691199171
 H        -8.8274609318        0.6287073649        3.5259718270
 H        -7.7876872168        1.5488113434        2.4644320830
 H        -7.1501654833        0.1560312505        3.3361970632
 H        -4.8882699197       -0.0989922850        7.2179079862
 H        -6.3103315545       -0.8372916588        7.8895401593
 H        -4.2111619107       -3.3282000839        4.3731993321
 H        -3.9106424259       -1.8945242948        3.4674752056
 H        -1.7361644943       -1.3853034233        7.7228497726
 H        -2.7307927719       -2.1061698619        9.0339989280
 H        -3.4092079581       -0.8677941224        8.1562526904
 H        -2.3711031541       -4.2520778627        6.3979354091
 H        -2.8380508687       -4.0550481491        8.1322537823
 H        -4.0999323875       -4.3755066529        6.7540069547
 H        -2.3694567177       -4.0137554435        2.6571226726
 H        -1.4777862664       -3.7575304136        4.1156321017
 H        -0.6905510533       -2.6446546299       -1.1887129431
 H         0.6917704140       -1.8550295682       -0.5664477669
 H         0.5341377252       -0.2315218049        1.0974911067
 H         2.1111210336       -1.0053263745        1.7434915729
 H         1.1402544531       -0.3153635334        2.7754591131
 H         1.1737712571       -2.8989449079        3.9030967666
 H         0.8063951948       -4.3200495406        2.9505333891
 H         2.1739285676       -3.2800535295        2.5233388668
 H         1.9004654486       -4.4434377659       -0.6499363118
 H         0.3203779163       -4.6409155409       -1.3560868928
 H         2.8871313404       -2.5409470955       -5.5150119424
 H         3.7921493345       -2.1866199882       -3.9950222332
 H         1.2725386142       -6.5116979632       -2.5133670621
 H         2.8758846082       -6.0433494068       -2.0781884548
 H         2.6372830651       -6.7993184060       -3.5474814228
 H         1.6082672168       -4.1244398296       -5.6809668088
 H         0.8553452893       -5.5869714245       -5.4380997298
 H         0.1685660684       -3.9686557883       -4.6097377322
 H         5.8125182297       -3.2813553732       -5.1579729566
 H         5.3620797516       -1.7916588447       -5.6168592022
 H         9.5889859912       -2.6176271754       -7.3268152393
 H         9.2022324967       -4.3669710257       -7.5284095513
 H         6.1661501602       -6.2744849750       -7.0834091769
 H         7.3817371955       -5.3260939377       -6.3245749262
 H         7.6543171607       -5.7460552918       -7.9766515838
 H         5.7516460133       -3.0677455894       -9.7986024473
 H         6.7301452634       -4.6268430985       -9.9746502913
 H         4.9178085286       -4.6385989133       -9.5289187099
 H         8.4391655730       -3.5156292738       -9.9646965672
 H         9.0104686583       -1.9469088238       -9.4318727371
 H        12.4246302705       -1.1942884024      -11.2028096185
 H        13.1398877792       -1.9971857458      -12.5659064783
 H        11.9357083173       -0.7113794782      -12.7319639751
 H        12.6209829127       -5.1779408717      -11.9093384559
 H        12.3609525139       -5.1814637562      -10.2359149705
 H        13.1188972720       -3.7107874355      -10.9245518422
 H        10.0159344120       -5.1042843102      -12.5998370386
 H         9.8887388480       -5.6670547411      -10.9009036062
 H         8.9704926110       -4.3204254432      -11.3621254476
 Na       -2.4522813805        0.9797068966        3.9209524652
