155

 C        -7.9252225777        7.8572039998        1.9689098375
 C        -6.8135806735        7.2806345311        1.0392240151
 C        -5.6381589933        8.3577673841        0.7088858533
 C        -4.8234263774        8.5351381972        2.0090352397
 C        -4.6497130058        7.3147293604        2.9790808793
 C        -4.5950479762        7.6878866487       -0.2987790184
 C        -6.3228628776        9.7442198876        0.2977316561
 O        -6.8379589736        6.2224824834        0.4606436796
 O        -4.3691489075        9.6056146670        2.3348267744
 C        -3.5857879692        7.5374426509        4.1407947058
 C        -3.5244192863        6.0662475545        4.6728686125
 C        -2.2302077551        5.3384277261        4.6404309016
 C        -2.3830394333        3.8265053396        4.8674126875
 C        -3.3527158948        3.1148337502        3.9082952099
 O        -4.5000065991        5.6980124610        5.2873226613
 O        -1.8156693426        3.1515997209        5.6582097713
 C        -1.6468540109        5.5413070966        3.1634788547
 C        -1.3241324170        6.0905627899        5.6259904828
 C        -4.8345702199        2.8835748522        4.4404325523
 C        -4.7907295663        1.7741232924        5.5668606939
 C        -5.9553818257        1.7858653555        6.5324324016
 C        -6.0066712101        0.4631177843        7.4344338985
 C        -6.0780533464       -0.8632107097        6.7378279339
 C        -5.7385286645        3.0678619141        7.4145732679
 C        -7.3004377790        2.0517186825        5.7023746446
 O        -4.0416179132        0.8427106207        5.5431784596
 O        -6.2034228706        0.6334737702        8.6103320528
 C        -4.8845495568       -1.6015105298        7.1504725134
 C        -4.5795903512       -2.8758475339        6.2691345715
 C        -3.0620586334       -3.2601397954        6.0223358499
 C        -2.3188514289       -2.0887813709        5.2699124206
 C        -2.9705882434       -1.8636107207        3.8213494837
 O        -5.3917245848       -3.6397462641        5.9184283134
 O        -1.3276288080       -1.4797386291        5.6341855635
 C        -2.4846073311       -3.2624597965        7.4588870120
 C        -2.9920980828       -4.5094210445        5.2152194728
 C        -1.9506048459       -2.1303792275        2.6618317372
 C        -1.1322375760       -0.8220078829        2.4808229432
 C         0.2085978184       -0.9841177361        1.7740183954
 C         0.3947136033       -2.2615010885        1.0793421830
 C         0.3985874775       -2.2531475159       -0.5165120896
 C         0.4281343052        0.3202575650        0.9846049753
 C         1.3201565366       -0.9865138119        2.9769358072
 O        -1.4960649579        0.4022231761        2.6987727145
 O         0.5931924345       -3.3373131125        1.6188180504
 C         1.5782755747       -3.0022433334       -0.9500964843
 C         1.3020264480       -3.6059593204       -2.4284709428
 C         2.0820360276       -4.6728244006       -2.9187209282
 C         3.6501864926       -4.2310987340       -3.1782421630
 C         4.0263176959       -3.6666046062       -4.4718592507
 O         0.5685370738       -2.9264130521       -3.0970795961
 O         4.4744744821       -4.3014330325       -2.2653916218
 C         2.0779282099       -5.8322216321       -1.9258225194
 C         1.2163750579       -5.0023465281       -4.2309782652
 C         3.9856493533       -4.6064158680       -5.7248584417
 C         3.2648904164       -3.7998005072       -6.7882733507
 C         3.7402719680       -3.5804802359       -8.1980454085
 C         5.2826797449       -3.0414348043       -8.4372399771
 C         5.9655526730       -3.7061621126       -9.6807729752
 C         3.6147684706       -5.0866208232       -8.6760339051
 C         2.8165716907       -2.5732927812       -8.8047118184
 O         2.0994169936       -3.4499858716       -6.5571461786
 O         5.7358329869       -2.1495366475       -7.7958266985
 C         7.3177159916       -3.0487745470      -10.0483062041
 C         8.2517646713       -3.8818936895      -10.9567692833
 C         9.5085583315       -3.2014457286      -11.6559763476
 C        10.1338934654       -2.2232379405      -10.6027725396
 C        11.1668990063       -2.5663897065       -9.6148646122
 O         8.0365038244       -5.0427212051      -11.1917658246
 O         9.8302624570       -1.0256688396      -10.5895195573
 C        10.4628832609       -4.3399471950      -12.0902304607
 C         9.0509686052       -2.3377572125      -12.7859222545
 H        -8.7933920198        7.2985929757        1.8415083993
 H        -7.6222451737        8.0962312620        3.0135287054
 H        -8.1281155147        8.8852227276        1.7517900186
 H        -5.6981526801        6.9717865167        3.2139635088
 H        -4.2319192136        6.5477469554        2.3270190521
 H        -3.6609113880        8.2562423271       -0.2836055353
 H        -5.0131787543        7.6006626607       -1.3317799084
 H        -4.5125034781        6.7604080972        0.2672193529
 H        -6.8729197426        9.5592524664       -0.5674847665
 H        -6.9598283735       10.0678076096        1.1201204630
 H        -5.4937970364       10.3335825818       -0.1164623865
 H        -2.7226928635        7.9853396081        3.5478941241
 H        -3.9583642976        8.2824387159        4.8532025644
 H        -3.5137107191        3.8613111540        3.1103930972
 H        -2.8306105589        2.2532371611        3.5753727213
 H        -1.3835315836        6.5174577705        2.9971247738
 H        -2.2177621139        5.2006283535        2.3297591149
 H        -0.7428827781        4.9583789518        3.1417821112
 H        -1.6418536720        7.1549450482        5.5128394334
 H        -1.6349059343        5.9030938675        6.5921407393
 H        -0.2423747811        5.9789427252        5.4088384983
 H        -5.5284456748        2.4705077418        3.7048230399
 H        -4.9871041182        3.8463639798        4.8261459086
 H        -6.9659554670       -1.5172739967        6.9168799691
 H        -6.1967615385       -0.5454244616        5.5964591576
 H        -4.8398135442        3.0752845316        8.0132675707
 H        -6.5464375386        3.1621473105        8.2468036555
 H        -5.8818178680        3.9554129933        6.8517825086
 H        -8.1385455026        1.8310049111        6.3717183762
 H        -7.2944299030        3.0861428850        5.3752626181
 H        -7.3775731211        1.5590703553        4.7624136566
 H        -4.0185986725       -0.8136698030        7.1158362392
 H        -4.9563289081       -2.0350989181        8.1911033533
 H        -3.8979281026       -2.5680455569        3.8922593605
 H        -3.4762006578       -0.9572948426        3.8654753970
 H        -1.6179220029       -3.9465092122        7.5972768669
 H        -3.2840786761       -3.5496024121        8.1350921502
 H        -2.1356063849       -2.2938671759        7.7328197516
 H        -1.9909980790       -4.5827367780        4.8692235075
 H        -3.3209008165       -5.3275031104        5.7248573076
 H        -3.6674002418       -4.5735735143        4.3334857397
 H        -2.4762389565       -2.3577821027        1.7151445885
 H        -1.4174844968       -2.9759768617        2.8386428466
 H        -0.5159083315       -2.7131920493       -0.9864482652
 H         0.2162333255       -1.1841718197       -0.7650685988
 H        -0.4805021064        0.5160086607        0.4634231817
 H         1.1100382412        0.4291183310        0.2107785592
 H         0.4881760429        0.9536390629        1.7791740305
 H         1.1368069064       -1.7766792983        3.6541565862
 H         2.2449745004       -1.2541820985        2.4643360654
 H         1.3413775615       -0.0408012162        3.5006208897
 H         2.5487084326       -2.3775535465       -0.8412372991
 H         1.6477408982       -3.7865401131       -0.1992052940
 H         3.1656431574       -2.9939720749       -4.6034497965
 H         4.9797077309       -3.1649929771       -4.3591419732
 H         1.0519734761       -6.0426694849       -1.4901283288
 H         2.8024142295       -5.4429497687       -1.2992826925
 H         2.2499460717       -6.7874084418       -2.4934519937
 H         0.1710024034       -5.1130168521       -3.9300765061
 H         1.2313967173       -4.2261483180       -5.0132950568
 H         1.3983852747       -6.0386698563       -4.5755764364
 H         3.5670510167       -5.5325012196       -5.5246647445
 H         5.0012741608       -4.8618163034       -6.0905316169
 H         6.2022360367       -4.6993574818       -9.3513947226
 H         5.2509150294       -3.8382029427      -10.4690079073
 H         2.6241940473       -5.3281705662       -9.0550970161
 H         3.9772322843       -5.7392648433       -7.9645726748
 H         4.2059026928       -5.2572313829       -9.5663633689
 H         2.8375609202       -1.7139494544       -8.2758797385
 H         3.2016572177       -2.4219844793       -9.8038257797
 H         1.8323172113       -2.9693329293       -8.8833052759
 H         7.2128256092       -2.0380356159      -10.5948654438
 H         7.9808766628       -2.8795377439       -9.2518655035
 H        11.2842570430       -1.7239026729       -8.9002115936
 H        11.1346849755       -3.5122584687       -8.9538971420
 H        12.2452771779       -2.6273682567       -9.9905662116
 H        11.4076718645       -4.0511701471      -12.5380718474
 H         9.9278492924       -5.0943224270      -12.7058481239
 H        10.6917652968       -4.8052901553      -11.1696046016
 H         9.9682311451       -2.2104707769      -13.4084199953
 H         8.3575974074       -2.9786835063      -13.3022928774
 H         8.6361396056       -1.3844859852      -12.7391870602
 Na       -1.6229853854        0.8475740905        5.0237747624
