155

 C        -6.8315571504        9.6550962737        1.0947119239
 C        -6.3939610975        8.4587866578        0.4332514534
 C        -5.0230000627        8.6658002143       -0.2258459193
 C        -4.0497086500        8.4648708435        0.9345646719
 C        -3.6740957951        6.9440665907        1.3271138233
 C        -4.8003299771        7.5652618855       -1.3348460493
 C        -4.8601228329       10.1136462597       -0.8994349448
 O        -6.9263766691        7.3404061252        0.4562395952
 O        -3.4636707930        9.4433241046        1.3689553332
 C        -2.5679220753        7.0313898644        2.4109046203
 C        -2.8344940593        6.1589817181        3.7443018602
 C        -1.7401200236        4.9884165587        3.9274468237
 C        -2.0730285502        3.7244584386        4.8870738480
 C        -3.5222604849        3.3550824749        5.0920221899
 O        -3.7881326013        6.4019080169        4.4529449926
 O        -1.0703179940        3.2402733448        5.3683793069
 C        -1.7165348904        4.2930974333        2.4592800550
 C        -0.3136269892        5.6399688532        4.2660322522
 C        -3.7594017430        3.2344032912        6.6121732686
 C        -4.1978716802        1.7404849449        6.9528622901
 C        -5.5757991011        1.4143977885        7.8423639329
 C        -5.3740335506       -0.0956196073        8.5481148182
 C        -5.5725603091       -1.1503995572        7.5048342602
 C        -5.7964842289        2.5437450188        8.8719003654
 C        -6.7685209952        1.4419472869        6.7177437627
 O        -3.3725484095        0.8849055510        6.7679464702
 O        -5.2136629894       -0.1889240717        9.7183795213
 C        -4.9481873183       -2.4360281054        7.9869422446
 C        -4.7075268940       -3.1932485137        6.7120823540
 C        -3.1684968789       -3.5549968018        6.2865860325
 C        -2.3226624862       -2.3151315222        5.8589060219
 C        -2.1502760314       -1.9833190828        4.3958670182
 O        -5.5350076694       -3.3842327883        5.9100482323
 O        -1.9857066516       -1.5709131284        6.7600462272
 C        -2.5275690560       -4.0790378969        7.6476255167
 C        -3.2104910428       -4.7430196906        5.2463126007
 C        -0.5819285201       -1.9362064834        4.0530118601
 C        -0.2862663386       -0.6321839524        3.2254423344
 C         0.2384856460       -0.9616701884        1.7876697261
 C         1.5122305545       -1.9775441656        1.7394529154
 C         1.6188417692       -2.9785448458        0.6474465621
 C        -1.0049593835       -1.6281297500        1.0980492478
 C         0.6336643131        0.2838289783        1.1277402439
 O        -0.6867955684        0.4743759055        3.6070660228
 O         2.3025398661       -1.9179603543        2.6659193157
 C         2.2686967539       -2.4362293131       -0.7622408335
 C         1.5786118372       -3.1931178704       -1.9884122364
 C         2.1877874506       -4.4872917258       -2.6556534175
 C         2.7054467797       -4.1285319742       -4.1918378018
 C         1.6597346535       -3.5729043318       -5.1678241608
 O         0.3937000302       -2.8764668351       -2.2608477793
 O         3.8549580905       -4.4082092123       -4.4256611090
 C         3.2667293311       -5.0979828350       -1.7067456644
 C         0.9438543773       -5.4443012692       -2.7708750886
 C         1.8610547874       -4.1983140751       -6.6186931957
 C         1.7741557749       -3.3241576883       -7.8899806337
 C         2.4560972959       -3.9162007331       -9.2607136913
 C         4.0062940016       -3.6259350712       -9.2445734665
 C         4.7789478240       -2.9305540268      -10.3776658368
 C         2.4126514292       -5.5838499607       -9.3224452414
 C         1.6757562724       -3.3265923481      -10.6189161338
 O         1.3992551947       -2.1478626531       -7.9237947089
 O         4.6600070847       -4.0490522349       -8.2793314418
 C         6.2089701199       -2.6215342354      -10.0316997920
 C         7.2262564056       -3.0368459312      -11.1491752575
 C         8.6871893589       -2.3905867676      -11.1731252822
 C         9.5129025233       -3.0891261405      -10.0565092436
 C        10.3044438913       -4.2840476997      -10.5300570213
 O         6.9095461807       -3.8658574269      -12.0155541708
 O         9.4303431425       -2.8988977661       -8.9052950704
 C         9.1416720574       -2.6991941514      -12.5998939232
 C         8.8061374270       -0.8470313889      -10.9397962018
 H        -7.7362856430        9.3841814227        1.7969058347
 H        -6.0104848418       10.1678287512        1.6278201347
 H        -7.2432031192       10.4096670098        0.4605685723
 H        -4.5981538667        6.5689640340        1.7800998578
 H        -3.3236910526        6.2319085030        0.5836717495
 H        -4.0790728155        8.0566500693       -2.0874618058
 H        -5.7140526150        7.5601065022       -1.9390930846
 H        -4.3763808230        6.6397492993       -0.9580548026
 H        -5.5709535334       10.2606573344       -1.7779523690
 H        -5.0139386013       10.9535446016       -0.2646193005
 H        -3.9694340260       10.1423235540       -1.4751981259
 H        -1.5660255271        6.8612243014        2.0950917829
 H        -2.5035887191        8.0270413320        2.8663060550
 H        -4.1175452953        3.9990506650        4.5077740225
 H        -3.6911892915        2.4152853584        4.4818594386
 H        -1.4050607162        4.9558496629        1.6894236877
 H        -2.7688409282        3.8985786257        2.2654470647
 H        -0.9316112910        3.5125321560        2.5667470582
 H        -0.0614103918        5.5580526294        5.3247499838
 H         0.4690959999        5.0480893683        3.7407159476
 H        -0.1105773221        6.5875568561        3.8989814624
 H        -4.4813175208        3.9155653601        6.8169022424
 H        -2.9651860738        3.5765636112        7.0986991477
 H        -6.6241698644       -1.1266182704        7.4064715347
 H        -4.9421731169       -0.8562827630        6.6970017045
 H        -5.6740351224        1.9808599134        9.8210129032
 H        -6.7485161807        2.9872606534        8.9059015450
 H        -5.1412460103        3.4360144954        8.9519529842
 H        -7.6019447203        0.8559075598        7.1454390049
 H        -7.1222054804        2.4617355440        6.4890845010
 H        -6.4993823202        0.9359355545        5.7505511533
 H        -4.0982660795       -2.2185962961        8.5318421344
 H        -5.5522728044       -3.0318354938        8.6726194330
 H        -2.6743735159       -2.6281913004        3.7857625919
 H        -2.7184298686       -0.9851147431        4.0662722650
 H        -1.6984013079       -4.7544456514        7.3658527206
 H        -3.2382392336       -4.5774523947        8.1728824047
 H        -2.1558003931       -3.3936312776        8.3616749651
 H        -2.3912840834       -4.6542132651        4.4893322276
 H        -3.2313853243       -5.7142835042        5.5919182921
 H        -4.1532968992       -4.8429684844        4.5567749491
 H        -0.2397854317       -2.7354745816        3.3943117684
 H        -0.0918475222       -2.1417688930        5.0638453594
 H         2.2191351126       -3.9195416782        0.9459689758
 H         0.5972238693       -3.3202252796        0.4199982621
 H        -1.5974306842       -2.5058843206        1.3961915955
 H        -0.7830843074       -1.8522963379        0.0763518898
 H        -1.8273603614       -0.8493487828        0.9357500080
 H         1.1142518013        0.1725024856        0.1243989769
 H        -0.1969384104        0.9504140042        0.8905980316
 H         1.3122065350        0.8751066275        1.7296866129
 H         2.2600429333       -1.3655535686       -0.9415574075
 H         3.3730778265       -2.7165408996       -0.6178398460
 H         0.7049282467       -3.7890454599       -4.6860659594
 H         1.7098229821       -2.4904849754       -5.3464898279
 H         2.8333613576       -5.3839384878       -0.8039200409
 H         4.0495813610       -4.3116166193       -1.6150816871
 H         3.6022113651       -6.0457392116       -2.1313468986
 H         0.7742444727       -6.1218720558       -1.8967411412
 H         0.0658505002       -4.7749594209       -2.8582356410
 H         0.9895086664       -6.2497728554       -3.5351360456
 H         1.1447120691       -5.0729264462       -6.8884051569
 H         2.8140523080       -4.7059950438       -6.5322619715
 H         4.7455345677       -3.5695526088      -11.3114047193
 H         4.2728238839       -1.9612302312      -10.4691048465
 H         2.9101564178       -6.0983441143       -8.5064068325
 H         2.8139151398       -5.7693710350      -10.2764013083
 H         1.3974177159       -5.8696975216       -9.4886803546
 H         1.5207550877       -2.3406833297      -10.5712403424
 H         2.3026531679       -3.4679150853      -11.4724170946
 H         0.7282497011       -3.7217623429      -10.7733961089
 H         6.4399934471       -1.6165235135       -9.6465243566
 H         6.3429075573       -3.2951688826       -9.2084655604
 H        10.6861199365       -4.6900596010       -9.6476511316
 H         9.5824031910       -4.9036561000      -11.0775804485
 H        11.0929485550       -3.8143058970      -11.1556914639
 H        10.1340259766       -2.3412004727      -12.7247684040
 H         8.5867091269       -2.0786551720      -13.2438725864
 H         9.1602139838       -3.6744978595      -13.0345559055
 H         9.8380921331       -0.5937401726      -10.9256901108
 H         8.1809656232       -0.2083036014      -11.5500628702
 H         8.6008585023       -0.7174451422       -9.8633215699
 Na       -1.2581975413        0.8252428329        5.8657524182
