155

 C        -6.5870193715       10.1778579903        0.1917142609
 C        -5.5834542066        9.0689218647        0.5580207659
 C        -4.3300339345        8.7127175019       -0.2792494905
 C        -3.0641771379        8.4273661721        0.6504849259
 C        -3.2518988331        7.7644791396        2.1122699411
 C        -4.4904349100        7.3734084578       -1.1459897350
 C        -3.9711524680        9.8297506017       -1.2958930126
 O        -5.9995533900        8.1745644163        1.3903537635
 O        -1.9609176739        8.5951521626        0.1695685170
 C        -1.9255678245        6.7960426689        2.2707208427
 C        -2.2597858720        5.7891776145        3.3522191284
 C        -2.0843056151        4.1466805370        3.1806290591
 C        -2.5315062360        3.4910395956        4.5344067122
 C        -3.8938026358        3.5102346660        5.1842494067
 O        -2.6765650709        6.0507354475        4.4327537060
 O        -1.7157817683        2.7218828817        5.0171137705
 C        -2.9576557878        3.4127185254        2.0265084220
 C        -0.4909159961        4.1159455217        2.9998924357
 C        -3.6898095681        3.1841138546        6.6946708180
 C        -4.2694664797        1.7707096853        6.9753729201
 C        -5.1432854377        1.4456028419        8.1677282400
 C        -4.8351626524       -0.1138998918        8.7546087401
 C        -5.5596663222       -1.3295529313        8.1448697525
 C        -4.8390166508        2.3333171550        9.4359318312
 C        -6.5873752758        1.5583848430        7.7456949465
 O        -4.0357267181        0.8402680569        6.2096943427
 O        -4.1872335792       -0.2612103449        9.7373586982
 C        -4.8967711599       -2.6567324983        7.9411084475
 C        -3.8864435261       -2.6347037946        6.8431059782
 C        -2.4649213984       -3.4127659551        7.0374587817
 C        -1.4833567574       -2.4617378665        6.0207093197
 C        -1.3409050454       -2.7285551174        4.4410866098
 O        -4.1472599771       -2.3126529773        5.7209186653
 O        -0.9528314826       -1.4601432411        6.4940229617
 C        -2.0263984769       -3.4655694704        8.4929642367
 C        -2.5617317467       -4.8583424122        6.6626143557
 C        -0.0544618519       -2.1318998361        3.7469553151
 C        -0.2826668559       -0.8076601355        2.8061592073
 C         0.1940260044       -1.0371972304        1.1864336523
 C         1.6181016429       -1.5543350637        1.2421536071
 C         2.2742556717       -2.2664218556        0.0160071164
 C        -0.8499817361       -1.9581690051        0.4474044799
 C        -0.1578884177        0.4112815824        0.5801454507
 O        -0.8808571102        0.1979170196        3.2633277917
 O         2.2364917431       -1.5865875764        2.2780276939
 C         1.8169245081       -1.8683450845       -1.4250621312
 C         1.0523031525       -3.1540075384       -1.9641102236
 C         1.9826823720       -4.2379949560       -2.5843092790
 C         2.2317766585       -3.6798241040       -4.0988634623
 C         1.1581076439       -3.7229436510       -5.1597280044
 O        -0.1090811227       -3.3136774279       -2.0820967608
 O         3.3488187054       -3.3102123133       -4.3899426425
 C         3.3798046179       -4.5343957123       -1.9670087532
 C         1.1021873858       -5.5682525120       -2.7733996155
 C         1.5940354766       -4.4210707773       -6.3750042160
 C         1.4596485900       -3.5673916055       -7.6539465221
 C         1.8169766107       -4.0586800548       -9.0006513741
 C         3.4513776805       -3.8855443425       -8.9260278704
 C         3.9757384094       -2.5319782501       -9.4173345531
 C         1.3502594970       -5.5717023348       -9.0230190293
 C         1.3287297213       -3.1485111163      -10.1035117661
 O         1.2075674459       -2.3805427290       -7.4410806804
 O         4.0946591627       -4.7259734262       -8.3318947370
 C         5.4816545366       -2.2682191827       -9.4554384483
 C         6.3892264625       -2.4386960313      -10.7490070335
 C         8.0039651742       -2.2592995913      -10.6496043291
 C         8.6533416720       -3.6316168004      -10.5656853570
 C         8.7479011953       -4.4334199470      -11.9750161823
 O         5.8932687399       -2.4684185103      -11.8515161725
 O         9.3271103969       -3.9908772546       -9.6831332375
 C         8.4041488741       -1.5385317727      -11.9519067560
 C         8.1345192961       -1.4413038303       -9.2967262502
 H        -7.7015602701       10.0270835278        0.5780544172
 H        -6.2913699950       11.2297605750        0.4097066871
 H        -6.7305839127       10.1057940076       -0.8962467712
 H        -3.1939297897        8.6258542268        2.8143461649
 H        -4.2720907528        7.4485317128        2.1550195442
 H        -5.5395423244        7.1744542836       -1.4733135637
 H        -4.2905198227        6.3695621986       -0.6559003207
 H        -3.6867804199        7.4872774603       -1.9164370802
 H        -4.6141245935        9.9231531302       -2.2159591442
 H        -3.8566658285       10.8331241542       -0.8934427520
 H        -2.9166687978        9.7464225836       -1.5381374480
 H        -1.6619189768        6.3286600910        1.4230753698
 H        -1.2174311310        7.4792316095        2.6069016492
 H        -4.3235794424        4.5474493512        5.1062587969
 H        -4.6235987785        2.9085765417        4.7496665955
 H        -2.2393124847        3.2443557815        1.1907974288
 H        -3.9596061903        3.7776949415        1.7192138969
 H        -3.0454936955        2.2735321201        2.2421308217
 H        -0.2927208615        4.4374998174        1.9976225867
 H         0.0151725862        4.8500153144        3.6998731744
 H         0.0066711089        3.1906918665        3.0847206701
 H        -4.0085308409        4.0701366695        7.3803016382
 H        -2.5896644039        3.2442690010        6.6547641632
 H        -6.3879937056       -1.5975878790        8.6920786862
 H        -6.1462298144       -1.0836239953        7.2399564881
 H        -3.9410009180        1.9585581170        9.9417735607
 H        -5.6681441643        2.5154970883       10.0381534233
 H        -4.4046896025        3.2479972193        8.9751770415
 H        -7.2172360890        0.8793621884        8.3634854160
 H        -6.9754469937        2.5749516090        7.8917741720
 H        -6.7036697461        1.1921527974        6.7163141008
 H        -4.5177150519       -2.9708153333        8.8906110407
 H        -5.7459925200       -3.2715373902        7.6726903424
 H        -1.5941417811       -3.6736244599        4.0814747583
 H        -2.1200264336       -2.0180231829        4.1456095883
 H        -1.0048921045       -3.0282151197        8.5415559223
 H        -2.1091196714       -4.4062428036        8.9100275746
 H        -2.5291530848       -2.7341279908        9.0848316322
 H        -1.6419552898       -5.4827823589        6.5136984024
 H        -3.2780900207       -5.4126078881        7.2316140059
 H        -3.0625264439       -4.8667558786        5.5675698589
 H         0.4278594931       -2.8668779174        2.9749783012
 H         0.6969333885       -2.0247518668        4.5498743005
 H         3.3779250810       -2.1849996109        0.1221750046
 H         2.0497567643       -3.3752343941        0.1951043966
 H        -0.8462217995       -3.0103493000        0.7603703612
 H        -0.7203937837       -2.0108956978       -0.6323710748
 H        -1.9264648977       -1.6165370847        0.6541691566
 H        -0.0222008559        0.6452419988       -0.5086460118
 H        -1.2564042521        0.6199658372        0.7555034030
 H         0.4551716973        1.1495513663        1.1027044892
 H         1.1347199637       -1.0687624298       -1.5474010220
 H         2.7827350900       -1.7156665444       -1.8212489974
 H         0.1915671178       -4.1458892533       -4.8373604894
 H         0.9976409653       -2.6447792932       -5.3282303581
 H         3.4948905408       -4.3190654893       -0.9703199390
 H         4.1923572927       -3.8830933952       -2.3968154904
 H         3.6063859074       -5.5510175135       -2.1106029896
 H         1.4206601462       -6.3617783828       -2.0457677555
 H        -0.0095742030       -5.2955224036       -2.6242447663
 H         1.1286364083       -5.9434240967       -3.8411216488
 H         1.1594656204       -5.4411114704       -6.5480280421
 H         2.7268932901       -4.5503921796       -6.2652611517
 H         3.4465531825       -2.4161167839      -10.3716717211
 H         3.4601092237       -1.8143090568       -8.7376910061
 H         1.7854646932       -6.1534089960       -8.2249958988
 H         1.7726283814       -6.0578361252       -9.9241676009
 H         0.2542700763       -5.6659615076       -8.9445964348
 H         1.5885713212       -2.2149933793       -9.8422167872
 H         1.7853478531       -3.2840734352      -11.0730228528
 H         0.2936991862       -3.1602911518      -10.2010045903
 H         5.6763193246       -1.2148116557       -9.0243979736
 H         5.8126421100       -2.8446955899       -8.6653759961
 H         9.2352156029       -5.2884110920      -11.7103614797
 H         7.7532115825       -4.4876745381      -12.3658744011
 H         9.4181520336       -3.8302993554      -12.5623680478
 H         9.4629971196       -1.1550454620      -11.9524277028
 H         7.8003341729       -0.7104213984      -12.1223203913
 H         8.3681712979       -2.1643730040      -12.8170480081
 H         9.0752272909       -0.9454301650       -9.0843299527
 H         7.5321813076       -0.5951229108       -9.1613032860
 H         7.8732197794       -2.1972720276       -8.5843299390
 Na       -1.6661673644        0.5644770008        5.6946438726
