155

 C        -4.1067049447       11.1587700093        0.2981042959
 C        -4.1011897665        9.6104490400        0.5677730877
 C        -3.4997383627        8.7298617594       -0.5885613761
 C        -2.3713236068        7.8953466837        0.3139037517
 C        -2.8157856521        6.5749661897        0.9318889491
 C        -4.6439215354        7.6543411252       -0.9454361103
 C        -2.8571590958        9.2597418217       -1.8392501843
 O        -4.5951928136        9.1480642505        1.5358226010
 O        -1.2829653248        8.3808445640        0.5431442252
 C        -2.3478615126        6.8789586523        2.3539039083
 C        -2.4404983801        5.6761781216        3.4701104912
 C        -2.8038626600        4.1596240805        3.1098372462
 C        -2.9692914859        3.4472849810        4.4144059477
 C        -3.9933902399        4.0464717055        5.4716348788
 O        -2.0885123567        5.8998617070        4.5809062558
 O        -2.2089844697        2.5443026729        4.6414310364
 C        -4.1462711259        4.1584775392        2.4245221729
 C        -1.6905161483        3.5536275376        2.2234968471
 C        -3.7425734674        3.4815727145        6.8651796670
 C        -4.0950999764        1.9862727572        7.0947140959
 C        -4.5954578434        1.5206469464        8.6065689279
 C        -4.2596803359       -0.0558184777        9.1023864634
 C        -4.8378965672       -1.1776368343        8.3574722936
 C        -4.0120120437        2.5135091043        9.7070973137
 C        -6.1616740111        1.6920941621        8.5450849763
 O        -4.0867578404        1.1905435310        6.1201889101
 O        -3.4500244698       -0.0519828590        9.9926417019
 C        -3.8743732561       -2.3975793289        8.3436542710
 C        -2.6928508806       -2.1211613439        7.2951700726
 C        -1.2585531754       -2.7526497940        7.3037309911
 C        -0.5633049743       -2.3402539563        5.9849311685
 C        -0.2958243488       -3.2789565983        4.7607991229
 O        -3.0808194325       -1.6034972693        6.2287626392
 O        -0.2078933484       -1.2364109785        5.7686960657
 C        -0.4508111358       -2.3459859338        8.3942063633
 C        -1.4235747539       -4.2472920950        7.2544231599
 C         0.2930121585       -2.4677134927        3.5866066740
 C        -0.7513447696       -1.5885998661        2.8097529458
 C        -0.7573245272       -1.8178168842        1.2053966690
 C         0.7036580902       -1.6534509503        0.6847186504
 C         1.4925731872       -2.9120278772        0.3401563478
 C        -1.5034034134       -3.0872135138        0.7751183468
 C        -1.7148567134       -0.4856537426        0.5534166004
 O        -1.5827759089       -0.9030917307        3.3817505399
 O         1.3197002854       -0.5960464331        0.7670041757
 C         1.9330876069       -2.8428920291       -1.1306492335
 C         1.6651051108       -4.1314729168       -1.9890908090
 C         2.6687527598       -4.5793474018       -3.0212921150
 C         2.4872342172       -3.3910499318       -4.1132354185
 C         1.2307912164       -3.4645541567       -5.0831820345
 O         0.5318418493       -4.6252890673       -1.9297638686
 O         3.1386222114       -2.3718403723       -4.1149554347
 C         4.0216930190       -4.8566571518       -2.4162124060
 C         2.1227723496       -5.9107141440       -3.6303964520
 C         1.7575413110       -3.5005550962       -6.4640202325
 C         0.7079267306       -3.3578803884       -7.6473008878
 C         1.1348636767       -4.0275740033       -9.0231456705
 C         2.7539060782       -4.1301836621       -9.3919613815
 C         3.4690186993       -2.6962622431       -9.5930577636
 C         0.4644190115       -5.4756233542       -8.7635835755
 C         0.3114935564       -3.3719439838      -10.1509469809
 O        -0.4054694076       -2.9121165947       -7.4106927618
 O         3.3644087561       -5.1615373582       -9.5597711080
 C         4.9486061156       -2.7005507833       -9.0916066899
 C         5.8212879135       -1.7417856524       -9.8493953343
 C         7.3777516870       -2.3236559678      -10.2012144533
 C         7.0509377040       -3.4392829557      -11.2883110923
 C         6.7668685187       -2.8837342343      -12.7610141473
 O         5.4474458290       -0.6666851834      -10.2129833379
 O         7.0672068598       -4.6201893115      -10.9641437101
 C         8.2779031461       -1.1617850713      -10.6450407548
 C         7.8100321541       -3.0247188099       -8.9209283029
 H        -4.9444878533       11.5780082735       -0.1292076131
 H        -3.8509961499       11.5610874859        1.3101226315
 H        -3.3103917989       11.4338301748       -0.3712426269
 H        -3.9502594790        6.5152120301        0.8099176670
 H        -2.1883329663        5.8260820399        0.4437628419
 H        -4.9365819933        7.8626684280       -1.9563078787
 H        -5.3640612213        7.4476504262       -0.1595995701
 H        -4.2048941815        6.7132369760       -1.0689293572
 H        -3.6371749728        9.8631575956       -2.3560570960
 H        -2.1317004103       10.0324536343       -1.6044188097
 H        -2.3731252563        8.4877937069       -2.3958317731
 H        -1.3389658659        7.3928549142        2.1982323141
 H        -2.8061691063        7.7663646048        2.7064474202
 H        -3.7346527545        5.1269148356        5.5603638482
 H        -5.0641360464        3.8976915724        5.2531264351
 H        -4.1078338945        4.4843705980        1.4071351959
 H        -4.6606498514        5.1054485522        2.8375536446
 H        -4.8816204229        3.3961074887        2.6670649948
 H        -1.5393226720        4.0783537684        1.2828589589
 H        -0.7805317152        3.5443463698        2.7484173615
 H        -2.0138184892        2.5077223953        2.0074333927
 H        -4.1704926855        4.1769061271        7.6024078175
 H        -2.7030742899        3.5217996859        6.9245338564
 H        -5.8065613318       -1.3851430601        8.8682627368
 H        -5.1687296823       -0.6345661201        7.4298993525
 H        -3.1152138172        3.0516003119        9.5246520973
 H        -3.7300531024        1.7933429415       10.4971961933
 H        -4.8086803892        3.0614415707       10.0481271217
 H        -6.7112120812        1.3445724854        9.4293025145
 H        -6.4744677534        2.7422617640        8.4518423435
 H        -6.5488752153        1.1379211497        7.6492233262
 H        -3.5840392131       -2.4926814094        9.4141061760
 H        -4.1966908935       -3.4194717405        7.9559175535
 H         0.4693909816       -4.0039788242        5.0114847692
 H        -1.1744207987       -3.8366673490        4.4864773971
 H         0.5957853694       -2.5074396608        8.1860920841
 H        -0.5997995303       -3.1516037579        9.1710349988
 H        -0.8684574111       -1.2981984546        8.5924437908
 H        -0.4457095506       -4.6473427549        7.2586763805
 H        -2.1451502914       -4.5465117716        8.0096361740
 H        -1.7795331740       -4.4495397318        6.3407126296
 H         0.7823872407       -3.1105663123        2.8856145518
 H         1.0431908967       -1.8217060286        4.0936173726
 H         2.4027062902       -2.8616916136        1.0015905786
 H         0.9794341177       -3.7885079181        0.6232337327
 H        -1.2956570249       -3.8807591302        1.5398049049
 H        -1.1988128885       -3.5161269237       -0.1967564657
 H        -2.5240408188       -2.6742788884        0.6927516736
 H        -1.9792935010       -0.6696672492       -0.4959883835
 H        -2.4395091572       -0.4136987954        1.3237899602
 H        -1.2392359262        0.5114496812        0.6020988527
 H         1.5857226033       -1.8695386875       -1.6226043691
 H         3.0576690591       -2.6484227865       -1.2716004358
 H         0.5565489567       -4.3190834853       -4.7409913704
 H         0.6191704828       -2.5558148820       -4.9005944862
 H         3.9878244645       -5.8515617528       -1.8317818311
 H         4.7036776871       -4.1716633311       -1.9401073443
 H         4.7123844081       -5.1714175590       -3.2161937994
 H         1.4514226748       -6.4029666243       -2.9052823755
 H         1.5290459082       -5.8089338246       -4.5229056946
 H         3.0176291458       -6.4509787439       -4.0311361621
 H         2.1731198699       -4.5518498141       -6.5774013729
 H         2.5477176254       -2.8711073542       -6.5738175471
 H         3.5298894595       -2.6067606219      -10.7327405152
 H         2.8760667221       -1.8000088746       -9.2074726669
 H        -0.4630537689       -5.8235407736       -9.2716675573
 H         0.0797843132       -5.5481940746       -7.7588645929
 H         1.1679232893       -6.3021637189       -8.9632891084
 H         0.1563531055       -2.2525990288       -9.9923805241
 H         0.7816644991       -3.6547442258      -11.1785077934
 H        -0.7356102172       -3.9060427974      -10.2078397232
 H         5.0429694986       -2.5652334151       -7.9915630123
 H         5.2696722632       -3.6592242096       -9.3771830116
 H         6.5882811355       -1.7735883788      -12.5789427229
 H         7.7254605022       -3.0707362599      -13.2650102583
 H         6.1448842725       -3.6072717323      -13.2578335558
 H         9.1103674480       -1.4073368543      -11.2048033691
 H         8.5682660143       -0.7412129710       -9.6912893683
 H         7.5648034159       -0.4221569583      -11.0509445977
 H         8.7700683238       -3.4933076230       -8.9917114365
 H         7.8900592622       -2.2686791981       -8.1122325175
 H         7.0175741938       -3.7402627557       -8.6134265894
 Na       -1.9863406560        0.4662215239        5.4127356522
