155

 C        -1.3643076948       -8.4529500875        0.6463218648
 C        -1.5135566427       -6.9641059295        0.9967766541
 C        -1.5594224536       -6.8313762059        2.6055067311
 C        -1.9281367060       -5.4249103995        2.9452731873
 C        -3.1696333907       -4.8029345681        2.2986698098
 C        -2.7370735500       -7.7227682153        3.0285614857
 C        -0.1019739856       -7.1219650529        3.1564480850
 O        -1.5310184248       -5.9640478474        0.2954119828
 O        -1.2897151437       -4.8521763097        3.8276429142
 C        -3.6099606514       -3.6804424633        3.2062241068
 C        -3.8120941079       -2.3222973511        2.4195310069
 C        -4.0478776394       -0.9256095414        3.0941929655
 C        -3.7390826924        0.2108444580        2.0433581380
 C        -2.2278908134        0.2849226968        1.5359760582
 O        -3.8174433548       -2.4053013545        1.2006066366
 O        -4.5560453353        1.0230830489        1.7104346171
 C        -5.4981539279       -0.7585511349        3.5826812321
 C        -3.1173374435       -0.7702323859        4.3370264005
 C        -2.1160031986        1.5888952432        0.7665195854
 C        -0.6930280112        1.9718904353        0.3926877646
 C        -0.4916484630        3.2967293159       -0.6260262247
 C         0.4447896111        4.1614544243        0.2458849757
 C         0.0586175721        5.5199427572        0.8104888378
 C         0.3165772671        3.0938263034       -1.9146364256
 C        -1.7897087877        4.0321306130       -0.9233846153
 O         0.1867300966        1.2931398344        0.7880989046
 O         1.5392903097        3.7442354392        0.5603732827
 C         0.4576734874        5.8313558091        2.2238379249
 C         0.1766913525        4.7186196969        3.2078729759
 C         0.8647545820        4.8480076124        4.6349988344
 C         2.3929693248        4.6207155622        4.4893172538
 C         3.0233780949        3.4188611555        5.1137094880
 O        -0.5710525993        3.7213387990        2.9614782758
 O         3.0496500248        5.4777021191        3.9510412186
 C         0.7603459569        6.3350208706        5.1908380842
 C         0.1479649952        3.9295931231        5.6402028576
 C         4.4442917589        3.1712763793        4.5542342045
 C         4.2713473357        2.7213032926        3.0864508439
 C         5.6833064486        2.3989487424        2.1625474173
 C         5.3811006419        1.6416257132        0.8200463223
 C         6.2159993301        2.0144855674       -0.4464136232
 C         6.3106858976        3.8146223081        1.9667326543
 C         6.7609059130        1.4438619997        2.9234281700
 O         3.2348011981        3.0199991590        2.5239297178
 O         4.4490282735        0.8346717480        0.8477667323
 C         5.9054859707        1.0401966904       -1.5955487523
 C         4.4780025579        1.2305329371       -2.1868133131
 C         3.9229558303        0.1573412923       -3.0967176696
 C         2.5261104051       -0.2620115941       -2.5089290146
 C         2.0204781037       -1.5466907605       -3.0939193631
 O         3.9018988922        2.2606315968       -1.9569592660
 O         1.8792443202        0.3989170289       -1.7227550710
 C         3.6339793373        0.7280646114       -4.5611685810
 C         4.8634079537       -1.1522628317       -3.2018975729
 C         0.6876964674       -1.9817253617       -2.4569612827
 C        -0.4540105634       -1.9944628586       -3.5418854582
 C        -1.8963202172       -2.2564677801       -3.1744916828
 C        -2.2966682498       -0.7775684350       -2.8483298624
 C        -2.8609314220        0.1014652944       -3.9958173721
 C        -2.7803180277       -2.9431693819       -4.2246429737
 C        -2.1279497218       -3.1435908826       -1.8538845997
 O        -0.1344875835       -1.5394002430       -4.6178995487
 O        -1.8301546552       -0.2374758727       -1.8493681562
 C        -4.4577203330       -0.1032230565       -4.4782474519
 C        -4.5749323176       -0.7005976765       -5.8976383634
 C        -5.7706084464       -1.4624225597       -6.3418640344
 C        -5.4816219831       -2.9548724179       -5.8325999742
 C        -4.5155788427       -3.7144016286       -6.6979471044
 O        -3.6464568127       -0.5508194143       -6.6847720531
 O        -6.0227091282       -3.3776001147       -4.8330040649
 C        -7.0447462876       -0.9028799732       -5.7217168934
 C        -6.0211854319       -1.5559069754       -7.9312864181
 H        -2.0509080364       -9.0799608799        1.2494450360
 H        -1.3632476898       -8.8261639615       -0.3333260793
 H        -0.3895343970       -8.6874929126        1.1470479592
 H        -2.9783849751       -4.3965889745        1.2250702450
 H        -3.8210980416       -5.6215716851        2.1718168628
 H        -3.4673982639       -7.6640815211        2.1853713933
 H        -3.1366223141       -7.7124636348        4.0179724798
 H        -2.3906312939       -8.8187565912        2.9868956767
 H         0.6693221621       -6.8406877037        2.3705658778
 H         0.2271535240       -6.4806600262        3.9915335931
 H         0.0720355846       -8.2316154898        3.3527251346
 H        -4.5759624063       -4.0218029134        3.6063185990
 H        -2.9569247314       -3.6108262804        4.0269665497
 H        -1.5543127534        0.2552643195        2.4010752418
 H        -1.9559976869       -0.5556836976        0.9190314101
 H        -5.4815120841       -0.0890235448        4.4520980294
 H        -6.0514027163       -1.5939464323        3.8855709957
 H        -6.1783574960       -0.3154491730        2.8605700366
 H        -2.8164406078       -1.6669652239        4.8602604612
 H        -2.1779449896       -0.2729320361        4.0989577612
 H        -3.4332833109       -0.1363863493        5.1764906670
 H        -2.5831035162        2.3992179952        1.3151267197
 H        -2.6002539457        1.4608369648       -0.2548833222
 H         0.4930239947        6.3235773276        0.2163271026
 H        -0.9493959279        5.6328791789        0.5685597615
 H         1.2616770096        2.6568162011       -1.8161237752
 H         0.5793107948        3.9681876074       -2.5135240724
 H        -0.1198970023        2.3789769814       -2.6537071978
 H        -2.6141184038        3.4806954237       -1.4235989067
 H        -2.2217909864        4.4112488646       -0.0181791562
 H        -1.7263767628        4.9685925072       -1.5381330428
 H         1.5156403884        5.9650588225        2.1561255762
 H         0.1168956038        6.8615088026        2.4555776258
 H         3.0709767213        3.7146785695        6.1523162346
 H         2.4120397118        2.4791091758        5.1182969714
 H         1.1529576406        6.9398216464        4.4574426742
 H         1.3196955023        6.3904543378        6.0999542013
 H        -0.2838534665        6.6500509865        5.2202753902
 H        -0.8801607038        4.1350035973        5.7147303985
 H         0.2763757723        2.8369490473        5.6031417176
 H         0.5832148469        4.1674870218        6.6189309620
 H         4.9135246734        2.4098230942        5.1597983015
 H         5.1134658200        4.0430648191        4.5753710367
 H         5.8412669589        2.9649368741       -0.7771135151
 H         7.2770168701        2.0227118104       -0.3250515684
 H         7.2000179068        3.7835870271        1.2661052633
 H         6.5949353712        4.1345133740        2.9311422521
 H         5.6674851265        4.6385528326        1.5080800011
 H         7.5324596664        1.1151356417        2.1468930114
 H         7.2180748913        2.0550050974        3.6545177282
 H         6.2510659239        0.5599080554        3.2997136285
 H         6.6128093949        1.3339403828       -2.3927763862
 H         6.2635130657       -0.0018439707       -1.3564294676
 H         1.8851019360       -1.4503747465       -4.1272236667
 H         2.8889018392       -2.2053837903       -2.9907459826
 H         3.5522796956        1.8721807023       -4.6026727144
 H         2.6818934184        0.4761077920       -4.9339195903
 H         4.4380672489        0.4641302233       -5.2590658304
 H         4.6152919247       -1.8057856932       -4.1261252804
 H         5.8439884763       -0.8949610738       -3.3531395683
 H         4.9137605401       -1.8461165440       -2.3474314569
 H         0.3755443209       -1.1844761820       -1.8813178992
 H         0.8517548921       -2.9017201234       -1.9251653312
 H        -2.8626979873        1.1362746104       -3.5498872410
 H        -2.3207263993       -0.0738840659       -4.9274771365
 H        -2.6006139737       -2.4377104201       -5.1677494076
 H        -3.6702510300       -3.2282839203       -3.7676697096
 H        -2.4330687832       -3.9044581348       -4.4077280295
 H        -1.8211244620       -2.4768941472       -0.9935156409
 H        -3.1176469991       -3.3943025776       -1.7739123473
 H        -1.4871266494       -4.0483477608       -1.8691965890
 H        -4.8922647714       -0.7751807134       -3.7108788853
 H        -5.0286804189        0.8478692338       -4.5546118465
 H        -3.7684748960       -2.9654114273       -7.0175676652
 H        -4.2044276767       -4.6019810475       -6.1295015172
 H        -5.1339170860       -4.0298517257       -7.5467814439
 H        -7.6633230211       -1.6864960504       -5.3643677331
 H        -7.6714910980       -0.4159749475       -6.4824797875
 H        -6.8028280550       -0.0998681227       -5.0227648659
 H        -6.9956175074       -2.1768328998       -8.0651309719
 H        -5.9976196003       -0.5424949452       -8.2514547772
 H        -5.2389773047       -2.0854906869       -8.4687331695
 Na        2.3732400250        1.6245889992        0.2970844050
