155

 C        -1.4129155929        9.9838105889        1.6485032375
 C        -2.7435289927        9.6076310275        0.9346277887
 C        -2.5716064222        8.8514780903       -0.4283877087
 C        -1.8444196396        7.5736720574        0.0297491120
 C        -2.7140058122        6.6676342334        0.9021773397
 C        -3.8689507385        8.5888786019       -1.0769622289
 C        -1.6321004019        9.6848279456       -1.3457538065
 O        -3.8820179444        9.5809457234        1.3748186961
 O        -0.6319332761        7.4607410611       -0.1291740286
 C        -2.3861001538        6.9458369570        2.3580221516
 C        -2.7656087774        5.6817225793        3.3294004094
 C        -3.6823137440        4.3366946187        3.1373709274
 C        -3.1175665558        3.6796253151        4.4734935591
 C        -3.8804241182        4.1073260079        5.7769489104
 O        -2.1041466869        5.7078597079        4.3509790233
 O        -2.2971703199        2.7535693079        4.4756003649
 C        -5.1432096179        4.7064853077        2.9180983778
 C        -3.1972926593        3.4037180664        1.9668626927
 C        -3.1648549139        3.5793545066        7.0289033920
 C        -3.5615565774        2.1328354196        7.3675368393
 C        -4.1137263611        1.7173881240        8.8109403719
 C        -3.2966292878        0.4697049419        9.2053143017
 C        -3.8787627376       -0.9135239734        9.0473766919
 C        -3.7637209261        2.7616552716        9.8274899240
 C        -5.6807220493        1.5801035398        8.5967169326
 O        -3.3591914957        1.1937771239        6.6296537832
 O        -2.2511923054        0.7435826272        9.8148514409
 C        -2.6752764778       -1.8815090655        8.9456343905
 C        -2.0169486481       -1.5268193085        7.6155940715
 C        -0.3815421849       -1.9879402424        7.3663031910
 C        -0.1397951748       -1.5217324566        5.8829156460
 C         0.0948686962       -2.6492828476        4.7254014090
 O        -2.6660847233       -1.2389863676        6.6406727183
 O        -0.5123059213       -0.4027841070        5.6095164315
 C         0.4699979567       -1.1955847592        8.3452651591
 C        -0.3116047325       -3.4809791632        7.7435537208
 C         0.1775375978       -1.9589502901        3.3754339953
 C        -1.2638673353       -1.9756760150        2.5796670219
 C        -1.4890599757       -3.1100938582        1.5223669014
 C        -0.4907575030       -2.8448236940        0.1148450271
 C         0.4471187806       -3.8753043497       -0.3340922776
 C        -1.2445822946       -4.4897310358        2.2284271510
 C        -2.9344997251       -3.1242142941        0.9718488499
 O        -2.1420253554       -1.1606867561        2.8060750783
 O        -0.4518798528       -1.7331158613       -0.3937574857
 C         1.0935705894       -3.5199479243       -1.6980227586
 C         2.2440345879       -4.5689033414       -1.9657227162
 C         2.9771358845       -4.7833453801       -3.4009207899
 C         2.4184637600       -3.6132920378       -4.2561318685
 C         0.9900007925       -3.7731223689       -4.8731029770
 O         2.7084289826       -5.1683552862       -1.0428407238
 O         3.0037928522       -2.5535878329       -4.4585176063
 C         4.4512257283       -4.7257884746       -3.1508094919
 C         2.6658146450       -6.2612806289       -4.0423867301
 C         1.2136079677       -4.1561523745       -6.3450508950
 C         0.6270048871       -3.2225309954       -7.2887658055
 C         0.2303628022       -3.7582683446       -8.7966311767
 C         1.6086823946       -4.2177937100       -9.4114741279
 C         2.6047851327       -3.0714672910       -9.7794987320
 C        -0.7631071435       -4.9176476747       -8.7574774862
 C        -0.3624808779       -2.4321225556       -9.5783612699
 O         0.3435731538       -2.1037833227       -6.9481270274
 O         1.9957845183       -5.3378128504       -9.3149993922
 C         4.0817427065       -3.5523568905       -9.8159257246
 C         5.0739314767       -2.4011628167       -9.8196792512
 C         6.7118892668       -2.4663549578      -10.2789597689
 C         6.3916017900       -2.3499093372      -11.8281894539
 C         6.3245059929       -1.0742990132      -12.5270788405
 O         4.6769923243       -1.2030849972       -9.8880798217
 O         5.9785454822       -3.4549268473      -12.2939314610
 C         7.4329833787       -1.2190235343       -9.6825895752
 C         7.4634729793       -3.6900609796      -10.0955861200
 H        -1.2458389246       11.1134593626        1.5567336116
 H        -1.3926151982        9.7259354570        2.7234324874
 H        -0.7298057400        9.4082259170        1.1022031236
 H        -3.7403201307        6.7028869057        0.6945663526
 H        -2.6192594574        5.6060078390        0.7569748090
 H        -4.7458987603        9.0076765262       -0.6226425481
 H        -4.0202393385        7.5283661111       -0.9976948867
 H        -3.8752443530        8.8300675812       -2.1694495063
 H        -1.9561452430       10.6868346242       -1.3517700737
 H        -0.5894904447        9.6050911654       -0.9175430693
 H        -1.8516702790        9.2427287734       -2.3266148247
 H        -1.2929701754        7.0826763442        2.4697281838
 H        -2.9696934638        7.9048176009        2.5661634659
 H        -3.8906917371        5.1729296434        5.6650413766
 H        -5.0173473009        3.8750856491        5.6839418094
 H        -5.0160160461        5.2955100866        2.0554097871
 H        -5.5384075858        5.3912751292        3.5225153837
 H        -5.7308795426        3.8381553882        2.8314532295
 H        -3.4163453553        3.7894095089        0.9746819954
 H        -2.1832136604        3.0194343184        2.1260718616
 H        -3.8825117766        2.5611309395        2.1315509665
 H        -3.2140060849        4.1810744078        7.8215115004
 H        -2.1323707416        3.5749943410        6.8695577878
 H        -4.3354142511       -1.1899556126       10.0626113669
 H        -4.4933692000       -0.9781100425        8.1531345694
 H        -4.6417191874        3.4286538838       10.0154779024
 H        -2.9350617370        3.3887316597        9.4783594829
 H        -3.3783416066        2.3695945602       10.8402821373
 H        -6.1714166553        1.0578863356        9.4173066805
 H        -6.1104906097        2.5937542789        8.6489740120
 H        -6.0265873776        1.0998384082        7.6796134086
 H        -1.9633485848       -1.8598947400        9.7804073494
 H        -3.1649252423       -2.8309748163        9.0201126506
 H         0.8730833169       -3.4923270197        4.8023491360
 H        -0.9082628736       -3.2858887583        4.7300068228
 H         0.0333137220       -0.2312333254        8.2864668913
 H         1.5386188987       -1.3357202433        8.2293848735
 H         0.2110601082       -1.6994657135        9.2131871798
 H         0.7944857936       -3.6714994138        7.6760983106
 H        -0.7894280609       -3.6225225325        8.7243543084
 H        -0.8095903808       -4.0555523019        6.8591330023
 H         0.9809014577       -2.4975993122        2.9353244509
 H         0.5222070317       -0.8529589252        3.5276213396
 H         1.1819254936       -3.8705974764        0.5359065765
 H        -0.0723128491       -4.8457863377       -0.3169600634
 H        -0.2705861705       -4.7599086313        1.9282435344
 H        -1.9247709221       -5.2776489146        1.9209880673
 H        -1.1518365131       -4.4827482158        3.2765731722
 H        -3.2898872987       -4.1356237285        0.8514207536
 H        -3.6517640170       -2.7162031926        1.7207112169
 H        -3.1865634468       -2.5149301050        0.1274075172
 H         0.2942386926       -3.3336635331       -2.4259928833
 H         1.6394894889       -2.6579465423       -1.4774330312
 H         0.4400565753       -4.5701451646       -4.4682890265
 H         0.3779869638       -2.8582985675       -4.7685590717
 H         4.8558592598       -5.4606781205       -2.5351734883
 H         4.5572948459       -3.8026108954       -2.6169474472
 H         5.1587427498       -4.5027251564       -3.9446068429
 H         2.0119736601       -6.8089680493       -3.4447933595
 H         2.1549677173       -6.0850802282       -4.9698722412
 H         3.5021036013       -6.8659919152       -4.0125731837
 H         0.9922706342       -5.2087437200       -6.5179766233
 H         2.2917433881       -4.0384444579       -6.5014231766
 H         2.3150284978       -2.7173274045      -10.7438378978
 H         2.4198797606       -2.2935581706       -9.1067597982
 H        -0.4713188179       -5.6176555344       -9.5091148880
 H        -1.7822022442       -4.5521503686       -9.0909834792
 H        -0.9255759435       -5.5643403590       -7.9208353024
 H         0.3262007794       -1.8767873555      -10.1499454073
 H        -1.1942676196       -2.7053908970      -10.0833364241
 H        -0.7775353495       -1.7775793639       -8.8019677380
 H         4.2183921406       -4.3154514852       -9.0696347034
 H         4.1817142700       -4.2654331014      -10.7729713035
 H         5.4547814249       -0.5045863873      -12.1629389653
 H         7.1216480478       -0.3378978016      -12.4862348036
 H         6.0307003917       -1.2602571966      -13.5104984577
 H         8.3243016048       -1.0951618769      -10.3119153437
 H         7.6512788012       -1.4527916923       -8.6058064898
 H         6.8530573463       -0.3332004339       -9.7800151494
 H         8.4042564317       -3.5260761473      -10.7424771628
 H         7.7320859303       -3.7711955448       -9.0239253893
 H         7.0654038163       -4.6096198312      -10.5373211960
 Na       -2.2659359721        0.3282107964        4.4648639506
