155

 C         0.1179711139        9.7409508471        2.0354216342
 C        -1.2480123326        9.3431531931        1.5216069205
 C        -1.4005234859        8.8780761428        0.0816521267
 C        -0.7016093243        7.5381552765       -0.1377968232
 C        -1.4003446058        6.2065619485        0.0705994646
 C        -2.8441623005        8.8348842915       -0.3349545217
 C        -0.7958661450        9.9470018118       -0.9021526785
 O        -2.2363065282        9.3042305394        2.2444957307
 O         0.5013583585        7.5741866997       -0.4464384289
 C        -2.4852663197        6.1063130664        1.2342661953
 C        -2.4885157405        4.8016541387        2.0974177111
 C        -3.7477682839        4.3162093502        3.0147912855
 C        -3.3809637907        2.9327899427        3.7841966314
 C        -2.8573338704        3.1375028107        5.2098789233
 O        -1.4004679024        4.3066475497        2.2796575026
 O        -3.6563911101        1.8293417785        3.3169883962
 C        -4.1829994989        5.4571485845        3.8286167273
 C        -4.9527348350        4.0609062174        1.9942240977
 C        -2.4894554579        2.0043701868        6.0943636039
 C        -3.4848978629        1.3780462199        6.9818494292
 C        -3.4058253545        1.5490620933        8.4748152715
 C        -2.0499539134        0.9560818209        9.1737222939
 C        -1.9478284738       -0.4510410172        9.6845011974
 C        -3.3009446543        3.0882055648        8.8611399083
 C        -4.7169513179        0.8028673241        8.9931648606
 O        -4.1332612019        0.4416338145        6.5302929572
 O        -0.9992427263        1.5839693186        9.0637796939
 C        -0.6590632808       -1.1418363224        9.0657895570
 C        -0.7347652976       -0.9356753002        7.5933989580
 C         0.4792874677       -0.7763282299        6.6733431076
 C         0.1664983338       -0.6973337223        5.1419585649
 C         0.4748456041       -1.8623189407        4.3638005242
 O        -1.8066145309       -0.9344685653        6.9703358384
 O        -0.4048438266        0.2224811884        4.6639572663
 C         1.0816220917        0.7036805613        6.9239830886
 C         1.4505740992       -1.9138934675        7.1491721209
 C         0.1685537002       -1.7861934185        2.8723123597
 C        -1.3758732371       -2.2398135177        2.6115863698
 C        -1.7973894872       -3.8269791486        2.3097453568
 C        -1.6670033466       -4.1007885124        0.7266749545
 C        -0.7956230705       -5.2914904402        0.1222547839
 C        -0.6683565961       -4.6633115967        2.9666536585
 C        -3.1705710467       -4.0746188000        2.9411570570
 O        -2.2528914281       -1.4135535823        2.6006622622
 O        -2.1398737417       -3.3338203179       -0.0561503655
 C        -0.0365488367       -4.9285786169       -1.1620324047
 C         1.3763227606       -4.2521852480       -1.2195434020
 C         2.3251331672       -4.6010212209       -2.4672064633
 C         1.7816792093       -3.8735468436       -3.7506666724
 C         0.8921053370       -4.6901486362       -4.6796224655
 O         1.5699490830       -3.3248587719       -0.5172799748
 O         2.0425841267       -2.6664433132       -3.9250265841
 C         3.7151199762       -3.9674514795       -2.0755432828
 C         2.3353991295       -6.1522823468       -2.5452241976
 C         0.8880652288       -4.1978520237       -6.1628446088
 C        -0.3483982535       -3.4559661525       -6.6372116856
 C        -0.4477186248       -3.4907264459       -8.3883506901
 C         0.9309828772       -3.6239834532       -9.0447746275
 C         2.0693831186       -2.5337879464       -8.9729727747
 C        -1.4733341329       -4.5501553053       -8.9546402422
 C        -0.9953120502       -1.9986371437       -8.6052015084
 O        -1.0982489612       -2.8048292952       -5.9718181994
 O         1.1987660050       -4.7480102321       -9.3116343507
 C         3.0547752190       -2.7949843999      -10.1422690646
 C         4.4234920275       -2.1085476236      -10.1828754027
 C         5.5018785949       -2.5466918454      -11.2167630374
 C         5.7590059412       -1.4157864309      -12.2712178137
 C         6.6522729137       -0.2586716010      -11.9251672924
 O         4.6067134951       -1.2275304001       -9.3288367342
 O         5.4311814823       -1.6558154011      -13.4930140822
 C         6.8509443551       -2.5806953696      -10.3342143057
 C         4.9753709013       -3.8906066402      -11.8475059042
 H         0.3730774186       10.7799125368        1.5985605488
 H        -0.0017332849        9.8177294260        3.1388003419
 H         0.7583000786        9.0153620822        1.7240026817
 H        -1.8706741807        5.6371258110       -0.7297736104
 H        -0.5520793946        5.6949968651        0.4536466917
 H        -3.4668975393        9.3982649046        0.2308605622
 H        -3.2961972124        7.9036447676       -0.6190243976
 H        -2.7720360678        9.1673553129       -1.3497358352
 H        -0.9768112593       10.8419747208       -0.4123116692
 H         0.2992324516        9.6882350087       -0.9394885257
 H        -1.2946926313       10.0432442559       -1.8432924018
 H        -2.4394086261        7.0661097352        1.8592768437
 H        -3.5301716338        6.0221538306        0.9862555492
 H        -1.8647995128        3.5979467579        4.9910031556
 H        -3.4699949921        3.9105508426        5.7999962899
 H        -4.2455774164        6.2729812386        3.0698919456
 H        -3.3871139840        5.8422942513        4.4381365469
 H        -5.1241519206        5.2648704626        4.4640808153
 H        -5.0894042550        4.7178330197        1.1598778847
 H        -4.7932727480        3.0624662074        1.5978129383
 H        -5.7489038848        3.9517871381        2.7215588789
 H        -1.6423648599        2.2802990790        6.7323891677
 H        -2.1032077909        1.3106314620        5.3632531085
 H        -1.7885140557       -0.3954953480       10.8337313646
 H        -2.7236604982       -1.1886389655        9.6988974320
 H        -2.8311938852        3.6362610800        8.1133738491
 H        -2.5019356289        3.1416502560        9.5176033344
 H        -4.2385211564        3.6338270923        9.0391216637
 H        -4.6378201917        0.7199037530       10.0759404321
 H        -5.5379013812        1.4484848971        8.6831213720
 H        -4.8351811598       -0.2176112815        8.6068077187
 H         0.1975373374       -0.6427526639        9.4340480834
 H        -0.5654795136       -2.1748220701        9.2313320344
 H         1.4641944868       -1.9868564433        4.5147435280
 H         0.0799036470       -2.7147813591        4.9060234264
 H         0.3099632982        1.2145485096        6.4333487575
 H         2.1662899406        0.7655918644        6.6984371444
 H         0.9467392142        0.9708128719        7.9317273110
 H         0.9425064076       -2.7981022010        7.5261350387
 H         2.1433338797       -2.3496351154        6.4399885830
 H         2.1402987310       -1.7757123457        8.0036512245
 H         0.8137244302       -2.2667355088        2.1210522099
 H         0.2210810288       -0.6439752297        2.5865532827
 H        -0.1047182278       -5.6975580621        0.8990363953
 H        -1.5781860945       -6.0842145484       -0.1516478047
 H         0.2720691117       -4.7458457557        2.4666562424
 H        -1.0150926235       -5.6624306126        3.1378370866
 H        -0.2611034073       -4.4420884264        3.9298547379
 H        -3.0430595289       -4.4873222465        3.8943154840
 H        -3.5593021623       -3.0586351050        2.9058969140
 H        -4.0028076553       -4.6845789155        2.5212250949
 H        -0.1477740170       -5.7920040527       -1.7464331518
 H        -0.6000031070       -4.2436160463       -1.8321404615
 H         1.3510232228       -5.7412130098       -4.5736464241
 H        -0.0912759080       -4.6516114350       -4.2082760655
 H         4.5704996422       -4.5916852263       -2.0555595697
 H         3.6744693384       -3.7168608453       -1.1219788979
 H         3.8727668279       -3.1346170815       -2.8214424479
 H         1.4883506300       -6.6871726038       -2.1893540569
 H         2.6516838633       -6.3658964317       -3.6167942619
 H         3.2484388430       -6.5192877160       -2.1056996575
 H         1.0387722498       -5.0110110406       -6.9356475376
 H         1.7057373071       -3.5482114955       -6.2410115892
 H         1.7352599834       -1.4897861116       -8.9706965921
 H         2.5433015867       -2.7889034954       -8.0354153967
 H        -1.0774204802       -4.8912107025       -9.9279297262
 H        -2.3990227756       -3.9633926975       -9.2929922038
 H        -1.7199345708       -5.3702213555       -8.2627470893
 H        -0.3126684547       -1.3190591073       -8.0374957260
 H        -1.0701511907       -1.6329177409       -9.6581622255
 H        -2.0589190683       -2.1369957360       -8.2129155816
 H         3.0365848711       -3.7829418441      -10.1088959677
 H         2.5861112811       -2.4330183547      -11.1168292953
 H         6.2084183558        0.4628387970      -11.2138553030
 H         7.5766203989       -0.5696504881      -11.4789299284
 H         7.1138152434        0.4327646918      -12.5203405379
 H         7.6753440943       -2.2807201397      -10.8849755661
 H         7.1854266303       -3.4898773777       -9.7709533209
 H         6.7920268172       -1.7684444993       -9.6823519157
 H         5.5379498499       -4.1102887203      -12.7487524160
 H         5.0537960420       -4.7162426169      -11.1987888674
 H         4.0231852665       -3.8107750527      -12.2513545759
 Na       -2.9170156652       -0.1293310744        4.5540206252
