155

 C        -0.0612942475        9.5632127952        2.7785134148
 C        -0.7242285928        8.3829366413        1.9914622740
 C        -0.5999625460        8.5031129036        0.3858864182
 C        -0.1518016320        6.9036519761        0.0795210493
 C        -1.1952563335        5.6863271491       -0.0333366297
 C        -1.9838133954        8.9596114437       -0.1774088648
 C         0.4611619976        9.4619100575       -0.1249338275
 O        -1.3506338553        7.4455702319        2.4496967627
 O         1.0498067629        6.6911489346       -0.0241853121
 C        -2.5249003456        5.7225939867        0.5673729708
 C        -2.6111479448        4.3463743450        1.4821374419
 C        -3.6890510633        4.1483251298        2.7472165081
 C        -2.9674894903        3.2375867435        3.8594201710
 C        -2.5259115562        3.8015460702        5.2621115483
 O        -1.9348958427        3.4371077313        1.1376086184
 O        -2.8615609782        2.0340114684        3.6242045162
 C        -4.0896721198        5.4740230642        3.1276933523
 C        -4.9205624991        3.2784810402        2.2331484764
 C        -1.7968926000        2.9803424108        6.3537602121
 C        -2.7843213314        1.9154429711        6.9081922611
 C        -3.1371044286        2.0000858328        8.4493745748
 C        -1.9471414669        1.2695458150        9.2234671188
 C        -1.1598113294        0.0844317244        8.6592340890
 C        -3.4162435748        3.3910163034        9.1313640114
 C        -4.3195921814        0.9606712104        8.7160452314
 O        -3.0020410799        0.8584641452        6.3267778905
 O        -1.8263121718        1.7467813211       10.3130205127
 C         0.1388208890        0.4253937954        7.8238667821
 C         0.2134846144       -0.2357170073        6.4296634527
 C         1.4889968127       -0.1782342082        5.5212323779
 C         0.8842849138       -0.3809449642        4.0815971648
 C         0.7727594659       -1.8253721853        3.5481148362
 O        -0.7425915809       -0.8371106500        5.9714692120
 O         0.3931854194        0.6310177515        3.6344015883
 C         2.2964291506        1.2148360248        5.6912731076
 C         2.4997359542       -1.2224440708        5.9635204990
 C        -0.3354851299       -2.0352355757        2.5213383581
 C        -1.5580034830       -2.9490162331        3.0366360276
 C        -1.6174880758       -4.3606206760        2.4265840685
 C        -2.0519188063       -4.1432676944        0.9249918859
 C        -2.2100779873       -5.2708419155       -0.1688719012
 C        -0.1720662584       -4.9107672700        2.7535921854
 C        -2.8002466779       -5.1917558183        3.1247557420
 O        -2.1488435373       -2.6503844989        4.0672547076
 O        -2.6011745509       -3.1208742086        0.6038137833
 C        -1.1570111546       -5.0076657617       -1.3596518722
 C         0.2211729476       -4.3229692005       -0.9270278097
 C         1.5553256247       -4.3059109246       -1.8629554365
 C         1.3184894491       -4.0034341589       -3.3305038334
 C         0.1863939541       -4.6198243559       -4.1198443535
 O         0.4458675024       -4.0182364626        0.2217981362
 O         2.2184014514       -3.4254912892       -3.9204425620
 C         2.5114668106       -3.2496718425       -1.2477607868
 C         2.0862969512       -5.7497339594       -1.8767564483
 C         0.3707398593       -4.1950463226       -5.5389329584
 C        -0.8632071362       -3.5936936396       -6.2277958352
 C        -0.7289115431       -3.0852495026       -7.7294183163
 C         0.6652789459       -3.4977679969       -8.3677716929
 C         1.4718623241       -2.3431690556       -9.1702288623
 C        -1.8486272621       -3.9143475877       -8.3730121198
 C        -0.9742169162       -1.5700504302       -7.6481732022
 O        -1.8677998408       -3.3282032645       -5.6035236375
 O         0.8970134055       -4.6574278211       -8.5093620235
 C         2.2443800855       -2.9836251359      -10.4020616618
 C         3.7342553348       -2.4736306510      -10.4880604398
 C         4.6654547399       -2.2999079270      -11.7404985019
 C         5.0471015895       -0.8627548229      -11.8195643054
 C         6.1088611053       -0.2115554226      -10.8961401719
 O         4.2465537707       -2.0273270545       -9.4455384038
 O         4.5721849829        0.0129791153      -12.6413438522
 C         5.9575486836       -2.9686851734      -11.4650227989
 C         4.0301409713       -2.9443246522      -13.0457258189
 H        -0.1167656330       10.5406305793        2.1999338824
 H        -0.6636466521        9.6879545945        3.7347310792
 H         0.9150414123        9.3792083723        3.0332266115
 H        -1.1692256989        5.4477639061       -1.0711292261
 H        -0.6522289557        4.8071692300        0.3688751180
 H        -2.7113972773        9.0555693032        0.5342387191
 H        -2.3638435324        8.2179947088       -0.8651230244
 H        -1.8737685212        9.6512408969       -0.9596650368
 H         0.1226846199       10.4757139020       -0.0707947993
 H         1.4505331725        9.3886644686        0.3655227733
 H         0.7422311721        9.0687618407       -1.0598082428
 H        -2.7122748753        6.7040944634        1.0925144861
 H        -3.3138583550        5.7700307476       -0.2073465899
 H        -2.0113466290        4.7995264540        4.9644850180
 H        -3.4028828960        4.3051839133        5.6815939374
 H        -4.6418886494        5.9565304230        2.2671447635
 H        -3.3409139739        6.1150218857        3.5394262814
 H        -4.8070116791        5.6323675287        4.0014594928
 H        -4.7947662707        3.2734898189        1.1252796402
 H        -4.8025206995        2.2329887125        2.5080965487
 H        -5.9608234747        3.6750360281        2.3595789109
 H        -1.4180454533        3.5506614263        7.1557627702
 H        -0.9081194732        2.4366189372        5.7655003255
 H        -0.7686770302       -0.4632890532        9.5472979260
 H        -1.9519980041       -0.5257533691        8.1161826611
 H        -2.5776496386        3.9805363048        8.9942582472
 H        -3.7078010101        3.3432218506       10.1658941301
 H        -4.3280816566        3.9619676775        8.7990843308
 H        -4.6668999498        0.9906517779        9.7262982184
 H        -5.1619422058        1.3588959103        8.1861736231
 H        -4.0233869495       -0.0000884201        8.2917790216
 H         0.1851709314        1.4596845557        7.5807830265
 H         0.8851824596        0.2401630654        8.5255870772
 H         1.7169204411       -1.8487887761        3.0587501566
 H         0.8902235328       -2.4086693962        4.4842265505
 H         1.9395977678        1.9659170359        5.0388561345
 H         3.1597857275        1.0648577206        5.0420067276
 H         2.6155421844        1.4635808217        6.6587003235
 H         2.0871461707       -2.2712332069        6.1454254444
 H         3.2329229563       -1.5385670129        5.1225973258
 H         3.0794365212       -1.0121166077        6.8952526231
 H         0.2014484700       -2.3920708091        1.6603355732
 H        -0.8533041604       -1.1216077639        2.1545673565
 H        -2.2261917913       -6.2975097407        0.3062234326
 H        -3.1886532030       -5.1196872147       -0.6470986146
 H         0.5512203102       -4.4616495639        2.0985479829
 H         0.0016953985       -5.9213949184        2.2989981839
 H         0.0672061933       -4.8275316393        3.7648290215
 H        -2.5194303557       -6.2336985417        3.0869806717
 H        -2.9138138019       -4.8112056699        4.1309033750
 H        -3.7511483333       -4.8305672723        2.7120398811
 H        -0.7648250213       -5.9946107353       -1.5309211293
 H        -1.8042992265       -4.4943347086       -2.0516021303
 H         0.1262241664       -5.6651660498       -3.9052078332
 H        -0.6864608227       -3.9789472307       -3.7144034371
 H         2.0452834108       -2.4531414416       -0.6727208378
 H         2.8415455652       -2.8174905903       -2.0751024381
 H         3.4456819709       -3.7381479741       -0.9349520768
 H         1.7273625623       -6.2805930421       -2.7671272798
 H         3.1464898026       -5.6869659109       -2.1684433568
 H         1.9055283368       -6.1432285698       -0.8901233933
 H         0.6553583640       -4.9384703358       -6.2882977253
 H         1.2554401027       -3.6244812810       -5.6242972303
 H         0.7885044175       -1.5826093722       -9.4872364130
 H         2.1183306363       -1.7567957106       -8.5137191566
 H        -2.2746522812       -3.5136993716       -9.3223719705
 H        -2.6649860903       -3.9115760850       -7.5536405117
 H        -1.4519013915       -4.9043721938       -8.4428749543
 H        -0.1074226688       -0.8464497806       -7.6074686058
 H        -1.6523908087       -1.2225837485       -8.4793514347
 H        -1.4488334134       -1.2297534205       -6.6518656371
 H         2.0837027944       -4.1059896964      -10.4913890307
 H         1.6693485440       -2.6844078025      -11.2940896609
 H         5.7159387340       -0.3965732970       -9.8841340649
 H         7.0598265222       -0.8039192077      -11.0487293254
 H         6.1203323463        0.8039474816      -11.2494593331
 H         6.6771464127       -2.7816612156      -12.1955245720
 H         5.8384437890       -4.0750049335      -11.5450376193
 H         6.3713216564       -2.7234418726      -10.4908417973
 H         4.7577918665       -3.1508639365      -13.8119255203
 H         3.5993757947       -3.8583257245      -12.6109401944
 H         3.1968904164       -2.3836314328      -13.3975936893
 Na       -2.2058460499       -0.1512607085        4.0457577739
