155

 C        -0.2275001379        9.6340862147        2.9377647003
 C        -0.6357792397        8.4394138521        2.0576889581
 C        -0.3886639103        8.4186263836        0.5088509802
 C        -0.1319356161        6.8069851160       -0.0102850963
 C        -1.3271913222        5.8334503061       -0.2640008263
 C        -1.6279282981        8.9996767009       -0.3297741036
 C         0.9431599390        9.1114093283        0.1926073392
 O        -1.1929136536        7.4862724982        2.5814084143
 O         1.0143945212        6.4826499563       -0.1684085766
 C        -2.4731631765        5.5462863348        0.8308297349
 C        -2.4939101459        4.1432830698        1.3562438884
 C        -3.6012814153        3.9080933639        2.5731742405
 C        -3.0214471744        3.1543910994        3.7402679144
 C        -2.6940330732        3.8943320200        5.1364301001
 O        -2.0761230787        3.0844234369        0.9745502060
 O        -2.5982798487        2.0584930687        3.4872245283
 C        -4.2322422738        5.2392709008        3.1981280071
 C        -4.7581329421        3.1862883804        1.9953050625
 C        -1.9373902643        2.9509931331        6.0272475645
 C        -2.6357486050        1.7972302962        6.8193415982
 C        -2.8897832945        1.9429487459        8.4683747031
 C        -1.7581266416        1.3550756897        9.3142086513
 C        -0.7651064826        0.3522848242        8.5237990665
 C        -3.2311698239        3.4272529519        8.7963909471
 C        -4.2049891385        1.0867514320        8.7258393668
 O        -2.8964086329        0.7421258879        6.2900678085
 O        -1.6817820331        1.3395337781       10.5319170011
 C         0.2589198429        0.9353797758        7.5396889586
 C         0.3870256402       -0.0941209859        6.4083640245
 C         1.6514558896       -0.1079574990        5.4498882457
 C         1.0340788544       -0.3554480529        3.9373499298
 C         0.9894773422       -1.7580178780        3.2635152801
 O        -0.5876887305       -0.6938796858        6.0033124659
 O         0.6422916419        0.5957238566        3.3229196482
 C         2.3123920526        1.2622557233        5.5386199569
 C         2.5201852411       -1.2364270177        5.9471406628
 C        -0.4551237867       -1.7871651359        2.5813834155
 C        -1.4887709444       -2.8390235157        3.0777669396
 C        -1.6415154325       -4.3602450435        2.6517410040
 C        -2.0218317517       -4.0964552753        1.0025519455
 C        -1.9120670735       -5.2614682534        0.0738941004
 C        -0.3660543989       -5.2816331434        2.6915306983
 C        -2.8468333444       -5.1404371776        3.3604339266
 O        -2.4040522495       -2.4184743047        3.7474806593
 O        -2.4563115116       -3.0019917575        0.6754230131
 C        -1.1670576845       -4.8581839178       -1.1978137712
 C         0.1820751385       -4.2754859487       -0.7484486785
 C         1.4894410210       -4.4186562848       -1.6386020186
 C         1.2451858088       -4.0972645202       -3.1972487716
 C         0.0180652960       -4.5187303956       -4.0893459769
 O         0.3074026593       -3.8491064396        0.4118873666
 O         2.0939008148       -3.4963623273       -3.8205877235
 C         2.5000336964       -3.4130326026       -0.9977454617
 C         2.0751304648       -5.8993601686       -1.6292212539
 C         0.2334414087       -4.5162499223       -5.6575101913
 C        -0.8523313647       -3.5524084677       -6.3009865831
 C        -0.9111550154       -3.0196982466       -7.8317051468
 C         0.4333500673       -3.3471742788       -8.5898382257
 C         1.3262188288       -2.3880268029       -9.3803489337
 C        -2.1831840179       -3.5849928937       -8.4714069010
 C        -1.1202847137       -1.5340067466       -7.6550962323
 O        -1.7582376523       -3.2952316142       -5.5582499521
 O         0.7730650832       -4.5627500646       -8.5348041629
 C         2.2498186832       -2.9687443823      -10.4618743561
 C         3.7021877918       -2.4299584854      -10.3986300132
 C         4.6463533526       -2.1872242107      -11.7562749088
 C         4.9319529418       -0.7095419160      -11.7744869506
 C         5.7674604517       -0.1148729102      -10.6740847026
 O         4.2011543407       -2.1980323892       -9.3399006716
 O         4.2178671340       -0.0806248258      -12.4227963316
 C         5.7710752891       -3.2534611124      -11.8052834034
 C         3.7999463650       -2.4688871065      -12.9882271537
 H        -0.2814845700       10.5259065397        2.3869081574
 H        -0.8111851245        9.5985331455        3.8535545843
 H         0.8493460995        9.5027655382        3.3021561665
 H        -1.6902506691        6.4272595725       -1.1752794565
 H        -0.9903352713        4.9121740820       -0.7542397911
 H        -2.2895261821        8.1902546299       -0.7598693151
 H        -1.2438754977        9.7116172917       -1.0473947713
 H        -2.2846000239        9.7876249123        0.2180533202
 H         1.1647112857       10.0942045324        0.7553122276
 H         1.7210573449        8.4125380343        0.3870749010
 H         1.0915244701        9.3012030026       -0.9357566225
 H        -2.4167321701        6.3038751882        1.5555523659
 H        -3.4797659800        5.6596345839        0.4286543881
 H        -2.2752500915        4.8332349280        4.9999784449
 H        -3.6264564634        4.1589796523        5.6758194716
 H        -4.8111828796        5.7777331414        2.5229868232
 H        -3.5202722237        5.9793262963        3.5802824758
 H        -4.7594638444        5.1208193557        4.0792330587
 H        -5.2577292336        3.6847033497        1.1669005454
 H        -4.4379075389        2.2195810484        1.5690576095
 H        -5.4987508521        3.0511232607        2.7638179493
 H        -1.5206828720        3.5015215894        6.9190266194
 H        -1.1029365311        2.6496116833        5.4521601815
 H        -0.3229590652       -0.2600135758        9.2801220578
 H        -1.5127471198       -0.1818514535        8.0156601114
 H        -2.4150731080        4.1785576564        9.1168912044
 H        -4.0376200665        3.4784507572        9.6032291844
 H        -3.8299489573        3.8742679534        8.0217706747
 H        -4.2372758743        0.8561951204        9.7969164069
 H        -5.1054372685        1.6948035557        8.5750253728
 H        -4.1846850363        0.2205115440        8.0857984919
 H        -0.1895748104        1.9034687802        7.1391451009
 H         1.1991485798        1.2823722695        8.1073815889
 H         1.8012757249       -2.0342391993        2.4572101565
 H         1.0789053969       -2.3299718747        4.1856115654
 H         1.7276489106        2.2286319030        5.4099225783
 H         3.1008786574        1.4542105804        4.8596409366
 H         2.7232673336        1.1375680429        6.5658550688
 H         2.0690863458       -2.1548072985        6.2876162654
 H         3.1746672591       -1.6599948296        5.2328399731
 H         3.1439476777       -0.9147531026        6.8158915782
 H        -0.1577320139       -1.9670339655        1.5038598417
 H        -1.0681356982       -0.9196853324        2.6631538125
 H        -1.3690499887       -6.0565293730        0.4908312533
 H        -2.9092453536       -5.6394280640       -0.0978487887
 H         0.5689601013       -4.7698516049        2.4891207883
 H        -0.3389072570       -6.0405294806        1.9413439601
 H        -0.4848156557       -5.6474697003        3.7159684561
 H        -2.4000758716       -5.8113737285        4.1126934289
 H        -3.6360594874       -4.4543254522        3.6733240648
 H        -3.2926347671       -5.6835916847        2.5291664885
 H        -1.0966166296       -5.7605600355       -1.8296691328
 H        -1.7094906502       -3.9650174327       -1.5144453716
 H        -0.1411584803       -5.6010568559       -3.8334558675
 H        -0.8324616188       -3.9354476503       -3.8786298329
 H         2.0367875628       -2.4163552761       -0.8339485009
 H         3.4773928201       -3.2484112429       -1.6858512257
 H         2.8429110167       -3.7929386236       -0.0512225733
 H         1.5307555995       -6.4102110666       -2.3847180535
 H         2.9428148126       -5.8485534128       -2.1749140953
 H         2.2569754362       -6.2693559934       -0.6284956780
 H         0.3001174742       -5.5012396674       -6.0930778449
 H         1.2347518282       -4.1339090665       -6.0558690379
 H         0.5839858442       -1.6956085465       -9.8215796721
 H         1.8714994355       -1.7643764099       -8.6830768412
 H        -2.3933454411       -3.0112241453       -9.3612180306
 H        -2.9948597639       -3.3099108579       -7.8363439823
 H        -2.0916019614       -4.6747267662       -8.6154923616
 H        -0.5416418439       -1.0092107336       -6.9716517934
 H        -1.1146795440       -1.0240186487       -8.5687331783
 H        -2.1123101238       -1.4363790884       -7.3116203264
 H         2.2090306036       -4.0603633581      -10.3794022016
 H         1.7512588945       -2.8453758595      -11.4064425118
 H         5.0909658979       -0.3450077000       -9.8276952198
 H         6.7107534939       -0.6945534618      -10.5519770861
 H         5.9399508428        0.9126235453      -11.0775003398
 H         6.3944177181       -3.2502641276      -12.7292708299
 H         5.2710594544       -4.1509614724      -11.7518107791
 H         6.4942136969       -3.2616597381      -10.9739855805
 H         4.2859436568       -2.0130083835      -13.8352133112
 H         3.6372106762       -3.5175835120      -13.0094318220
 H         2.8362775946       -1.9428902309      -12.9511560319
 Na       -2.3683993332       -0.2223671627        4.5075814578
