155

 C         1.1644578971        9.1818380877        2.7949992571
 C         0.3247935892        7.7979401877        2.6405799259
 C         0.9492109570        6.6021942750        1.8369134207
 C        -0.2743477944        5.6532263685        1.6368421881
 C        -1.4850177559        5.9124697009        0.8355456673
 C         1.3330330697        7.1071543651        0.4848709188
 C         2.0848899427        6.0167325168        2.6306452658
 O        -0.6705677182        7.5846665225        3.2830172464
 O        -0.1710321173        4.5852524458        2.1216000372
 C        -2.7380143231        5.4182664826        1.6163059032
 C        -2.9828345804        3.9875199265        1.1227496097
 C        -3.9144710001        2.9594983201        1.9077481877
 C        -3.1896488840        2.6730440319        3.1740657239
 C        -3.2913445371        3.5514548657        4.4300162781
 O        -2.5095717053        3.5750970892        0.1116491465
 O        -2.5677731175        1.6437333442        3.2828962032
 C        -5.2830183524        3.8163399437        2.0226472303
 C        -4.2914575183        1.6397160771        1.1868212305
 C        -1.9472110459        3.9561257414        5.0036711047
 C        -1.6721049529        3.0638433191        6.3118678388
 C        -0.9972012196        3.7039171726        7.6434215030
 C         0.1981612979        2.8276435770        8.1908329655
 C         0.1619132467        1.3520621451        8.2821052168
 C        -0.5100653226        5.1255104805        7.1841244017
 C        -2.2481553946        3.9947403597        8.5798967832
 O        -2.0285480127        1.9470846959        6.4808524492
 O         1.0671340684        3.3741600240        8.8714043023
 C         1.5086886572        0.8049003885        7.7260932214
 C         1.1710329834        0.2487252570        6.2318764042
 C         2.0157848717        0.4453144851        4.9056811574
 C         0.9516118239       -0.0110758455        3.7284009734
 C         0.9984138680       -1.5107122386        3.2220616027
 O         0.1270857390       -0.3818773826        6.0778776698
 O         0.2394034425        0.8615613865        3.3952689200
 C         2.3765422228        1.9563730929        4.4803586094
 C         3.2076976783       -0.6124048478        5.1616604243
 C        -0.0071864755       -2.1265699427        2.2292012674
 C        -1.2417275972       -2.7079494252        2.8559887966
 C        -1.7961502120       -3.9919140918        2.2338375732
 C        -1.7054809675       -4.1290375771        0.6079477960
 C        -2.2206265585       -5.5123900999        0.0209367852
 C        -0.7193711139       -5.0928907673        2.7387923973
 C        -3.1252059756       -4.5388555024        2.6311464495
 O        -1.5469556683       -2.3058973702        3.9609123686
 O        -1.3063166611       -3.3000220442       -0.2056430940
 C        -1.2359344919       -5.7813692176       -1.2488586548
 C         0.2914074363       -5.8706019246       -1.0220083354
 C         1.2177585888       -5.5576386742       -2.2869641505
 C         0.9667286537       -4.2441689286       -3.1532419074
 C        -0.4033429911       -3.9538850198       -3.7412042031
 O         0.8245954297       -6.2411719820        0.0015824650
 O         1.7439440712       -3.3361699824       -3.2361754766
 C         2.7061434735       -5.2060371059       -1.7682750137
 C         1.1189859513       -6.8291365846       -3.2851403697
 C        -0.4363145821       -2.7550186513       -4.7314730672
 C        -1.4905072653       -3.0615363829       -5.8561224127
 C        -1.5287138601       -2.1623388995       -7.1728414984
 C        -0.8036130703       -2.9936290650       -8.3118739041
 C         0.6026687755       -2.6559983931       -8.7231704102
 C        -2.9509569851       -1.9874268441       -7.6082356109
 C        -0.9264363121       -0.7441181486       -7.0347424352
 O        -2.1200052491       -4.0488493179       -5.9175078057
 O        -1.5156823164       -3.6754208885       -9.0239203353
 C         1.3452990635       -3.6634530200       -9.5261518322
 C         2.6002171583       -3.0554154906      -10.2847563430
 C         2.4961138034       -1.7636835740      -11.2511229279
 C         2.6824374031       -0.4990656145      -10.3990823169
 C         4.1865707007       -0.0495842774      -10.0933593656
 O         3.7327406599       -3.5757904956      -10.4440119403
 O         1.6877347411        0.0311328657       -9.9294245473
 C         3.5663888922       -1.8676286375      -12.4250808168
 C         1.1269981916       -1.7059757320      -12.0629436911
 H         1.1283655444        9.6840708010        1.8401317414
 H         0.6121073581        9.9058389256        3.4759807662
 H         2.1615360918        9.1746993977        3.0341344984
 H        -1.7262503356        6.9965315746        0.5771599723
 H        -1.3837466237        5.4316138397       -0.1086335411
 H         0.7105803716        6.7375166480       -0.2386780867
 H         2.2200754506        6.6773716640        0.1345734214
 H         1.4839951446        8.1376747212        0.5200211404
 H         2.8505210295        6.7403329391        2.9418724976
 H         1.7235396634        5.7174451752        3.5653654583
 H         2.4256774707        5.0581766404        2.3149391967
 H        -2.7204510271        5.5053596555        2.7363457357
 H        -3.5341431981        6.0804990811        1.4194396300
 H        -3.9639536134        4.3818788704        4.2380918089
 H        -3.9055918339        3.0314438793        5.1826419000
 H        -5.5040606842        4.3048290987        1.0277357168
 H        -5.0769738455        4.7270768888        2.6186655976
 H        -6.0616381022        3.2109054299        2.5818365454
 H        -4.4047672439        1.5615580651        0.1087557495
 H        -3.4695896991        0.9705954658        1.3484371318
 H        -5.1346536112        1.1906063124        1.6490025007
 H        -1.9609991258        4.9838357208        5.1545867707
 H        -1.0351870019        3.6020475743        4.4040413382
 H         0.1276606900        1.1781845248        9.3659243534
 H        -0.6759492603        0.9553776294        7.8267477767
 H         0.1076290909        5.0175691247        6.2934718592
 H         0.2679212568        5.6690830311        7.7632599225
 H        -1.2951613741        5.8460282275        6.9706007380
 H        -1.8085408935        4.6281206563        9.3685509871
 H        -2.9851653952        4.6879952245        8.1544908856
 H        -2.7356542647        3.1185776406        8.9633669738
 H         2.2793968807        1.5836118965        7.8913357417
 H         1.8251790408       -0.1677383564        8.1366434007
 H         2.0287198602       -1.7512411048        3.0384264654
 H         0.8575050003       -2.0512756227        4.0542082656
 H         1.5816167409        2.6394489503        4.0568609319
 H         3.0066369729        1.9343599799        3.6662228293
 H         2.8695604530        2.3728853743        5.3236041024
 H         2.7661014740       -1.6016616658        5.5135489009
 H         3.5564047666       -0.8005259450        4.0530737534
 H         3.9090074321       -0.0465168893        5.7702373194
 H         0.5938505528       -2.7811546277        1.4925153836
 H        -0.2210260816       -1.3244365833        1.5472438820
 H        -2.0182175188       -6.3575513727        0.7067802413
 H        -3.2214137094       -5.5277562852       -0.3709656985
 H        -0.2261886448       -4.7300399425        3.6147357769
 H         0.0889579908       -5.1210662745        2.0405448680
 H        -1.3294374601       -5.9450281865        2.9018034015
 H        -3.1122220993       -5.5477954558        2.1456310927
 H        -3.0174027665       -4.5393023276        3.7066243569
 H        -3.9942711291       -3.9902110495        2.3219055336
 H        -1.4043820632       -6.7354118307       -1.7647690501
 H        -1.5450452732       -5.1566724475       -2.1288823886
 H        -0.5701143239       -4.8437697742       -4.3951569951
 H        -1.2350809431       -3.8157519780       -3.0165571071
 H         2.7628863892       -4.3129623828       -1.1628838506
 H         3.2864925864       -5.2143253794       -2.6053058810
 H         3.0007048608       -6.0395547916       -1.1137297836
 H         0.0735442723       -6.7707092517       -3.7784766614
 H         1.8153007212       -6.8687546168       -4.1124808277
 H         1.2600819215       -7.8887891181       -2.8635045347
 H         0.5913858303       -2.4911113801       -5.2508505250
 H        -0.6655614407       -1.9260837699       -4.0413255167
 H         0.5704520299       -1.7351707634       -9.2536578608
 H         1.2452575591       -2.4511715447       -7.8529098370
 H        -2.9512486982       -1.5402320903       -8.6215000010
 H        -3.3834707607       -1.1557862764       -6.9957833603
 H        -3.4516018375       -2.8802027016       -7.6100221526
 H         0.1654936572       -0.7572453616       -6.8482830721
 H        -1.2544613617       -0.1827078389       -7.9150329237
 H        -1.4841658469       -0.2239842397       -6.1461812934
 H         1.7403337606       -4.5696701480       -8.9436360932
 H         0.6780642069       -4.1455258705      -10.1338592741
 H         4.8403762372        0.0518949485      -10.9434329586
 H         3.9981892823        0.9963385820       -9.8278627095
 H         4.6517725293       -0.6916214970       -9.4579977646
 H         3.5813405960       -0.8623490373      -12.9173157467
 H         3.2742359590       -2.6469511580      -13.0868005532
 H         4.5970569697       -2.0456325824      -12.0078741052
 H         0.8777153037       -0.6293647425      -12.2956974793
 H         1.1337811928       -2.2458274320      -13.0138848450
 H         0.1922793617       -2.0552114454      -11.5525233656
 Na       -1.8742350880       -0.2271005145        4.6058831465
