155

 C         1.3532831634        8.9045328394        2.8389582279
 C         0.4397111213        7.7356755102        2.8035242263
 C         1.0029911797        6.3347664055        2.0453234744
 C        -0.1685176844        5.4010504069        1.9289090015
 C        -1.3747065125        5.8950303912        1.1332583794
 C         1.5508553590        6.6953138496        0.6285160989
 C         2.0911057602        5.9182586650        2.9207388373
 O        -0.6378791750        7.8244532389        3.3891633712
 O        -0.2402643457        4.4790294243        2.7464849150
 C        -2.7869848172        5.3876313078        1.2897351572
 C        -3.1118747902        3.9125622140        0.8480143598
 C        -3.9961970245        3.0269440298        1.7651424399
 C        -3.3589466821        2.6379778571        3.1469265509
 C        -3.3871906151        3.6969939644        4.3787512279
 O        -2.7228285424        3.5452573361       -0.2518853941
 O        -3.0131404965        1.4814569000        3.3532356678
 C        -5.3906650716        3.6599142907        2.1318637023
 C        -4.2649207131        1.7776496837        0.8771878434
 C        -1.9971665469        4.1135798106        4.9512113972
 C        -1.4500144691        3.2307404569        6.0320722061
 C        -0.7101454009        3.8467360455        7.3783632823
 C         0.5151303759        3.1746251990        7.9278094353
 C         0.5175025037        1.7108617091        8.2749312358
 C        -0.2353584786        5.2901824500        7.1218176161
 C        -1.8626938131        3.9329511016        8.4316019317
 O        -1.4749655143        1.9874126280        5.9666881782
 O         1.3884064028        3.8396990960        8.3586497224
 C         1.5630888571        0.9730109734        7.5601160407
 C         1.0591392889        0.2293682176        6.3436493662
 C         1.9368187720        0.3633991732        4.9138951526
 C         0.9341499866       -0.2531575068        3.8710008567
 C         1.1627109257       -1.6475199777        3.2553393220
 O         0.0895097690       -0.4888295526        6.3319723120
 O        -0.1095129566        0.4025883787        3.6338886540
 C         2.4294880881        1.8336462080        4.5945942474
 C         3.3142904485       -0.4184650133        4.9896711563
 C         0.0368313591       -1.8822986505        2.1812875386
 C        -1.0560651005       -2.7206662460        2.7593454759
 C        -1.5995266745       -4.0981845648        2.1062857745
 C        -1.5088053726       -4.2371460229        0.5914201356
 C        -1.8407121600       -5.5962621237        0.0211480500
 C        -0.6680953742       -5.1893877340        2.8324369514
 C        -3.0245751658       -4.1526301654        2.5514331726
 O        -1.6965855601       -2.4878444629        3.8043087199
 O        -1.2444558809       -3.1397980992        0.0568383700
 C        -1.2836326923       -6.1679041067       -1.2774652367
 C         0.3074989155       -5.9649463436       -1.1656927386
 C         1.1938913931       -5.6962154655       -2.3529854783
 C         0.8541201541       -4.1099491892       -2.9222432288
 C        -0.5528292873       -3.7918856181       -3.6063922672
 O         0.7950099769       -6.3066822451       -0.1118983551
 O         1.6878221127       -3.2305364657       -3.0176547557
 C         2.6655251797       -5.8198829315       -1.9855805056
 C         0.8754235695       -6.5377078100       -3.5830370153
 C        -0.4629171586       -2.7211191849       -4.7352241320
 C        -1.4586614103       -3.1170026079       -5.9335870766
 C        -1.6874817569       -2.0988266076       -7.2276725693
 C        -1.1008995098       -2.7994252250       -8.4377151071
 C         0.4848004804       -2.6244634855       -8.5935122139
 C        -3.1552236036       -1.7839321929       -7.2378247727
 C        -0.8276738286       -0.7941123973       -6.8745513729
 O        -2.2722416806       -4.0609450117       -5.8741032613
 O        -1.6877196225       -3.6865812068       -9.0522846463
 C         1.4428575890       -3.6495738999       -9.4725082696
 C         2.5676657654       -3.1122265946      -10.3820594984
 C         2.2462557348       -1.8139354519      -11.2433758020
 C         2.5166499444       -0.5364452824      -10.2744393329
 C         3.9019440277       -0.0167945009       -9.8932101911
 O         3.5325029976       -3.7173511402      -10.6596379687
 O         1.6164770407        0.1417195291       -9.8903648826
 C         3.3727445774       -1.6520096692      -12.4058166104
 C         0.7998100237       -1.7128401589      -11.7736647396
 H         1.8666785148        9.1898478506        1.9315841043
 H         0.9878787393        9.7408905972        3.3496352288
 H         2.2530630009        8.5375739001        3.4570750058
 H        -1.4221532307        6.9536327207        1.1210564517
 H        -1.0970293510        5.6518057892        0.0374541797
 H         1.3626113780        5.9233325758       -0.1340903224
 H         2.6913489518        6.6624456182        0.6619626771
 H         1.4141245042        7.7835468050        0.3092039016
 H         3.0500733813        6.4429440671        2.6760261875
 H         1.9925965044        6.0419437416        4.0264650068
 H         2.4306655951        4.8256425386        2.8196136760
 H        -3.2669678263        5.6721542963        2.1784986497
 H        -3.4529169333        5.9714352896        0.5841074314
 H        -4.0871760182        4.5318293759        4.1991813314
 H        -3.9687553834        3.0210837798        4.9488167219
 H        -6.0641200676        3.6768891225        1.3353914584
 H        -5.0744785769        4.6778000366        2.3803820847
 H        -5.7387757871        3.1559840177        2.9735533031
 H        -4.6866953721        1.9423973379       -0.1069335835
 H        -3.2358087314        1.4344331570        0.5580201513
 H        -4.8253801787        0.8865703798        1.2875263742
 H        -2.2031400322        5.0623904329        5.5112737330
 H        -1.4652024628        4.3546891649        4.0157296132
 H         0.7207044838        1.7900259822        9.3469607880
 H        -0.4274271989        1.1208350479        8.1066641474
 H         0.4621273380        5.6847088330        6.3476284504
 H         0.3967445245        5.5904187946        7.9517898146
 H        -1.0978346405        5.9430769881        7.1070264504
 H        -1.5959726477        4.2515803420        9.4468067762
 H        -2.6276126314        4.5731673459        8.0005335357
 H        -2.3496364007        2.9497510079        8.4952354881
 H         2.3328028846        1.6377507558        7.1109737122
 H         2.0671616491        0.2128541419        8.2485584400
 H         2.2337081126       -1.5533231661        2.8547511350
 H         1.3131781738       -2.5346572821        4.0312816942
 H         1.6369973303        2.5127862027        4.8539405678
 H         2.4398404759        1.9376246512        3.4719781476
 H         3.3773720286        2.2233024811        5.0632178167
 H         3.0311993951       -1.4149273255        5.0927862090
 H         3.7990563107       -0.1694265577        4.1232383021
 H         3.8371259513       -0.0422435472        5.8567825610
 H         0.3813977870       -2.2434366529        1.2703800747
 H        -0.1612494102       -0.8152522914        1.8956622584
 H        -1.5658242713       -6.3212171860        0.7399877247
 H        -2.9206874544       -5.5646020901       -0.1792744467
 H        -1.1059265905       -5.4042877292        3.8306999609
 H         0.3661275056       -4.9155326432        2.9688290672
 H        -0.9082275633       -6.1221197848        2.2587539886
 H        -3.3471775532       -5.1829196272        2.3911215202
 H        -3.1936589302       -3.7688704432        3.5967564773
 H        -3.4409476829       -3.4878433741        1.7616699889
 H        -1.6164620727       -7.1881431550       -1.4853723832
 H        -1.7429806998       -5.5992549942       -2.0845126473
 H        -1.0484042126       -4.6230739742       -4.0793533531
 H        -1.0194815844       -3.3742127565       -2.7370464331
 H         2.6991326947       -5.2383734713       -1.0348384709
 H         3.2689706850       -5.4248764289       -2.8554687880
 H         3.0028532914       -6.8219997724       -1.6726664689
 H        -0.0984040993       -6.5104681339       -3.9094732780
 H         1.5777454522       -6.4060587005       -4.3940856411
 H         0.9966993871       -7.5460750549       -3.3312148537
 H         0.5142749842       -2.7553460018       -5.1554951609
 H        -0.5591991362       -1.6844526204       -4.3838107054
 H         0.7083462759       -1.5685237637       -8.9192245895
 H         0.8097029439       -2.5933254731       -7.5466583072
 H        -3.5050837428       -1.2369155896       -8.1229640879
 H        -3.4269064684       -1.1879682683       -6.3847734942
 H        -3.5964534074       -2.8555266827       -7.2483309538
 H         0.1664240479       -1.0188940347       -6.4028485971
 H        -0.7672298613       -0.1176348992       -7.7500008332
 H        -1.3889035465       -0.3088385198       -6.1265318390
 H         1.9070397763       -4.4684793129       -9.0654689990
 H         0.5264167659       -4.1929901813       -9.9778294483
 H         4.0782317087        0.9517048226      -10.4214147198
 H         3.9529334417        0.3101337644       -8.8681227395
 H         4.6528891126       -0.8088815175      -10.1899566577
 H         2.9630182777       -1.0304802611      -13.1730677591
 H         3.5126935361       -2.6637327392      -12.7228599387
 H         4.2847026739       -1.2371269062      -12.0857620433
 H         0.3651851768       -0.7395525746      -11.8829076310
 H         0.9330691044       -2.1109277277      -12.7867319623
 H         0.0331712591       -2.3246931490      -11.3824761152
 Na       -1.7507993392       -0.0792734494        4.6497424045
