155

 C         1.9794268127        8.4444853981        3.3449371086
 C         0.9709143203        7.4778208312        2.8715279830
 C         1.3418380411        5.9376437972        2.4606630174
 C        -0.0823523452        5.1629964997        2.2331140981
 C        -1.1100302516        5.8725100874        1.3874960712
 C         2.1559332623        5.8634813091        1.0795013903
 C         2.0957178630        5.3289548283        3.5736133880
 O        -0.1916889481        7.8169844849        2.9359300783
 O        -0.3855191838        4.1095749547        2.8641023966
 C        -2.6210192722        5.4069147446        1.6119359138
 C        -2.9613702689        3.8930271066        1.1707489506
 C        -3.9877550139        2.8995918912        2.0017162042
 C        -3.3969858970        2.4092039783        3.2910375626
 C        -3.6373202142        3.0624333772        4.7528724206
 O        -2.5198570360        3.3899543201        0.1820515795
 O        -2.6275091891        1.4351983042        3.3070095308
 C        -5.3629519894        3.6421394566        2.3141590765
 C        -4.3390373325        1.5576247142        1.1693927371
 C        -2.6702715022        4.1484316340        5.1999236924
 C        -1.3682906137        3.5943565200        5.6214848230
 C        -0.5028772148        4.2628000255        6.8288241141
 C         0.8577901448        3.4677366731        6.8238854830
 C         1.1740056204        2.3935211394        7.9570322649
 C        -0.3252196935        5.7816396984        6.3404419209
 C        -1.2542314747        4.1978820510        8.1652737817
 O        -0.9525429438        2.5152543163        5.3830911767
 O         1.7251596947        3.6445092099        6.0242498516
 C         1.8160885537        1.2032663377        7.2527404308
 C         1.0940927462        0.5876009659        6.0614096716
 C         1.9877519210        0.3058068344        4.7621276615
 C         1.0857148812       -0.4234613444        3.7214619498
 C         1.4459307796       -1.9543633000        3.3788665405
 O        -0.0635641731        0.0536953177        6.1568663296
 O         0.4458982124        0.2575413013        2.9490987010
 C         2.4877774031        1.5766799721        4.0720951064
 C         3.0385688808       -0.7141467840        5.2861535335
 C         0.5423992974       -2.2248955975        2.1823969130
 C        -0.8620203655       -2.6091946159        2.6292231750
 C        -1.5130173327       -4.1587192575        2.4099981764
 C        -1.2679225355       -4.5264324999        0.8525564284
 C        -1.5520417495       -5.8828920661        0.4508579202
 C        -0.7120519308       -5.1634101744        3.4097025103
 C        -3.0641786410       -4.1292845731        2.5894215019
 O        -1.6819555574       -1.8426945506        3.1112912786
 O        -0.9625896876       -3.7118847200        0.0328488300
 C        -1.2405587893       -6.1817930165       -0.9735970728
 C         0.2800237713       -5.9972499378       -1.2949739263
 C         0.6940744913       -5.7256053842       -2.8021150489
 C         0.7984103774       -4.0340549632       -2.6534065495
 C        -0.2920513015       -3.1366653690       -3.2760303126
 O         1.1357385537       -6.1830294433       -0.3995713450
 O         1.7067071876       -3.5175216520       -2.0226396897
 C         2.1592716588       -6.2177659324       -2.9795831040
 C        -0.3455797843       -6.2745327292       -3.7814578675
 C        -0.0818446430       -3.0041774381       -4.8754527778
 C        -1.4051631696       -2.8645723605       -5.5994911341
 C        -1.7521375906       -1.8855848166       -6.8239486280
 C        -1.2056546781       -2.6586075916       -8.0950892289
 C         0.4353274914       -3.0271258331       -8.3422819800
 C        -3.3004249731       -1.7934378541       -6.9045238759
 C        -1.0146686759       -0.4146258677       -6.8637810313
 O        -2.3230827154       -3.7050170260       -5.3165731747
 O        -1.9493957521       -3.0213945275       -8.9690099776
 C         0.7521017085       -3.7003014402       -9.6799144119
 C         1.8463079745       -2.9402920314      -10.4597297683
 C         1.5294951815       -1.6074524017      -11.0739798373
 C         1.8722214560       -0.6032417566      -10.0584153026
 C         3.2789716790       -0.6556220947       -9.3492110167
 O         3.0212689650       -3.3414157992      -10.5737315955
 O         1.1099875307        0.3132708880       -9.7586977512
 C         2.4477312293       -1.3003039408      -12.3759594951
 C         0.0208717229       -1.4384630499      -11.6200667162
 H         3.0432043171        8.2149865054        2.9433228728
 H         1.6189125127        9.4454013461        3.1849116733
 H         2.2386242715        8.3874541870        4.4308428096
 H        -1.1426695717        6.9559437610        1.5106241571
 H        -0.8663167237        5.6647674040        0.4022799324
 H         1.9924748222        4.7921149763        0.6548719639
 H         3.1782099509        6.1980784896        1.2664382020
 H         1.7029851053        6.3332120635        0.2166479308
 H         3.1629526353        5.4471635293        3.5591842210
 H         1.6946865202        5.7327792189        4.5557321085
 H         2.2635197851        4.2609929715        3.5305145840
 H        -2.9790512246        5.6854043757        2.6817272886
 H        -3.2066249902        5.9891464610        0.8816459166
 H        -4.6967523842        3.4158704010        4.9443041866
 H        -3.3173564369        2.2935052743        5.5326212090
 H        -5.7978836167        4.0104415022        1.3706001383
 H        -5.1584581024        4.3634717806        3.0374443646
 H        -6.0376026401        2.8432861394        2.7432997185
 H        -4.2619578104        1.5214820751        0.0541909844
 H        -3.7257667975        0.7810613483        1.6017235463
 H        -5.3212669495        1.1221425360        1.4487073065
 H        -3.3083646844        4.6170893144        6.1193498700
 H        -2.6048157955        4.9486484653        4.5732309123
 H         1.9598134923        2.8761219933        8.6383549926
 H         0.2161400693        2.1301089823        8.4744420160
 H        -0.4685756708        5.9569665463        5.3169285102
 H         0.5643639878        6.3362053318        6.5966537332
 H        -1.1451251005        6.3722881397        6.9052402694
 H        -0.5260398605        4.1534498526        8.9726349529
 H        -2.0216312703        4.9568537794        8.3363588712
 H        -1.7017997940        3.1973932167        8.2016653949
 H         2.8184845109        1.3972855425        7.2144808684
 H         1.6921169333        0.3969282869        7.9149358903
 H         2.4204599964       -2.0069985093        3.1343865632
 H         1.2461610172       -2.5861019331        4.3145501528
 H         1.7743208045        1.9655640211        3.4156626255
 H         3.4922209036        1.3449024120        3.5156931908
 H         2.7921370454        2.3933702460        4.7344451106
 H         2.5261109410       -1.5611823659        5.7805502727
 H         3.6610032900       -0.8175418556        4.4488235456
 H         3.6139686179       -0.1961516688        6.0591854431
 H         1.0148201186       -3.0271275124        1.6092190700
 H         0.5009907187       -1.3818185561        1.5065739029
 H        -1.2897159679       -6.6994434944        1.1582557299
 H        -2.6603469263       -5.8942398195        0.3102615971
 H         0.0716234697       -4.6885199126        3.9787438267
 H        -0.5879892893       -6.2427051974        3.0757019350
 H        -1.3926065287       -5.3525687557        4.2639567738
 H        -3.4665171076       -5.1306153197        2.9035975018
 H        -3.3945209451       -3.3975613682        3.3135338956
 H        -3.3009198349       -3.8704566288        1.5234169587
 H        -1.4279960809       -7.2648392003       -1.2415866035
 H        -1.8388410580       -5.4070106714       -1.4509254480
 H        -1.3349886508       -3.4966359727       -3.0764573731
 H        -0.2649402551       -2.0959339127       -2.9696722830
 H         2.7630792328       -5.5472227879       -2.3732006676
 H         2.5234980875       -6.2517931005       -4.0820485580
 H         2.2194967050       -7.1957210494       -2.6162221788
 H        -1.2705667989       -5.7090393264       -3.9016235665
 H         0.0323572112       -6.2441933230       -4.8312499199
 H        -0.6137063155       -7.2804443609       -3.5895017477
 H         0.5179892132       -3.8854858739       -5.2472907065
 H         0.6639389122       -2.1441198021       -5.2903970442
 H         1.1232665282       -2.1859155599       -8.0444809431
 H         0.3806708194       -3.5140997607       -7.3650128748
 H        -3.5967082585       -1.4552464661       -7.8405122436
 H        -3.5806534447       -1.1163254221       -6.0976726191
 H        -3.8382355824       -2.7451283169       -6.6313477542
 H        -0.0223689696       -0.3118600375       -7.2494091396
 H        -1.5973827791        0.1639555434       -7.5700811192
 H        -1.1812935340        0.0733870808       -5.9448251322
 H         1.1837395688       -4.7500457545       -9.5989394919
 H        -0.0997897308       -3.7041618707      -10.3351616720
 H         3.4607426351       -0.3615568257       -8.3458254530
 H         3.7119102333       -1.6805262137       -9.5434764621
 H         3.9421997131       -0.0729721729      -10.1369095251
 H         2.5689178169       -0.2571061012      -12.4983752938
 H         1.8006072520       -1.6730160587      -13.2718280838
 H         3.3774876704       -1.8207397553      -12.4306509534
 H        -0.0947612350       -1.1667360666      -12.5985495228
 H        -0.4835698230       -2.3751028925      -11.5925638195
 H        -0.6310321731       -0.8399513547      -10.9971813629
 Na       -1.4588804329        0.1012734455        4.4713644012
