155

 C         2.8653650080        7.8480573872        3.4517046506
 C         1.5703462304        7.2299521003        2.7908875944
 C         1.5478524323        5.9035445417        1.9427213545
 C         0.0414171485        5.4328300805        2.1042467789
 C        -0.9563507586        5.6657270902        0.8945374499
 C         1.9452474640        6.3640518952        0.4336267983
 C         2.4697220075        4.7739400876        2.3884419954
 O         0.5056742340        7.7577451159        2.9947619727
 O        -0.3610035014        5.0170511113        3.2036886886
 C        -2.4888232872        5.3127454732        1.3523157314
 C        -2.8327135349        3.8070536004        1.3555188556
 C        -4.1881977636        3.2061164832        2.0314199868
 C        -3.6199941482        2.4411736848        3.2517577402
 C        -3.9659602611        2.7238326430        4.7639493330
 O        -2.1502488703        3.0274139128        0.7333627153
 O        -2.9177265992        1.4944582081        3.0055618917
 C        -5.0424147234        4.4433622245        2.6287816425
 C        -4.8817891457        2.1170920549        1.1382403899
 C        -3.0873421960        3.7702636597        5.6621376199
 C        -1.7743084901        3.2077695056        5.9476689681
 C        -0.7365551140        4.2042709619        6.5359278675
 C         0.7809202028        3.6477726150        6.4238758721
 C         1.0312316566        2.3288365260        7.3131740179
 C        -0.7950312565        5.5894730287        5.6531874409
 C        -1.1496668282        4.5204705802        7.9144751194
 O        -1.5832912768        1.9808779889        5.7384980832
 O         1.6314679736        4.2237258806        5.7827427710
 C         2.3026456920        1.4379196458        6.8392143556
 C         2.0010322142        0.3976422178        5.7900996858
 C         3.0462805250       -0.0354015597        4.6733111538
 C         1.9125843794       -0.5892890567        3.5823893288
 C         1.2351891035       -2.1696646649        3.6257334938
 O         0.9354553008       -0.1612564401        5.7432623335
 O         1.4265418606        0.2907155100        2.9049706817
 C         3.9657300364        0.8557875920        3.8241165183
 C         3.9952244005       -0.9880679111        5.4280470360
 C         0.4924545852       -2.5393076522        2.3585676011
 C        -0.9067119937       -2.8828647562        2.8135920533
 C        -1.5665889222       -4.3158166894        2.7247684807
 C        -1.3366762038       -4.7028508162        1.1210534578
 C        -1.3773922906       -6.1538935424        0.8172883748
 C        -1.0014698306       -5.3544324244        3.8234676377
 C        -3.0751340778       -4.3167432695        2.8785700954
 O        -1.5167848586       -2.0698087226        3.4686170187
 O        -1.3204702527       -3.7584571746        0.3840598510
 C        -1.2410656804       -6.6379236395       -0.6279453499
 C         0.2151586298       -6.2556306873       -1.3379136310
 C         0.2989776005       -5.5832127365       -2.8046326880
 C         0.7316786698       -4.1408956567       -2.6376138110
 C        -0.1284307419       -2.9367395532       -3.1807280729
 O         1.2983837182       -6.2885691594       -0.7668009432
 O         1.8229607644       -3.8869654556       -2.1010173325
 C         1.4717238516       -6.1428239062       -3.6410624903
 C        -1.0981830871       -5.9077786434       -3.4695239609
 C        -0.0321796129       -2.5936052526       -4.6358281837
 C        -1.4762936101       -2.4663889888       -5.3032413846
 C        -1.6847417454       -1.7394840232       -6.5997053063
 C        -1.5795151032       -2.6782555437       -7.8751103311
 C        -0.1342977648       -3.3940954273       -8.1288773593
 C        -3.2345045723       -1.2838843061       -6.5310966196
 C        -0.8543647529       -0.3675266429       -6.6638105248
 O        -2.2905709402       -3.1178935891       -4.7795020226
 O        -2.4959990330       -2.9906636113       -8.6328938146
 C         0.1045651023       -3.6667256860       -9.6281024444
 C         1.2133861772       -2.8536726217      -10.3798214692
 C         0.9825085429       -1.2842572492      -11.0277209536
 C         1.4087180502       -0.5919215194       -9.7945977428
 C         2.8507524136       -0.4763684750       -9.4355528521
 O         2.2794617903       -3.3217452295      -10.7468301786
 O         0.5208020709       -0.0211272738       -9.0905821168
 C         1.8385782906       -0.9940471647      -12.3529267972
 C        -0.4769462196       -0.9787676745      -11.4585229361
 H         3.7041334554        8.1812090010        2.7410265781
 H         2.5821471276        8.7829004890        3.9910681503
 H         3.2958805879        7.2671588941        4.2336408181
 H        -0.9429174937        6.7514507774        0.7970187384
 H        -0.7768924577        5.2404823842       -0.0831286793
 H         1.8954948288        5.5889478490       -0.3502527926
 H         2.9740000616        6.7113470403        0.3439402541
 H         1.2909507855        7.1700790665        0.2153271651
 H         3.4986458614        4.9614529028        2.7236305710
 H         2.0822453758        4.3077434946        3.3060308060
 H         2.3684379750        3.8603204997        1.8252578355
 H        -2.4935016273        5.6310046991        2.3606125152
 H        -3.1912946126        5.7577927096        0.6354608635
 H        -5.0023302114        3.0605838505        4.7745817555
 H        -4.0109003586        1.7943987918        5.3586162327
 H        -5.1627709780        5.4193979150        1.9597440196
 H        -4.7212937651        4.8029042583        3.6360560880
 H        -6.0491575431        3.8742741800        2.7481114377
 H        -5.8290786397        2.4825751606        0.7126694224
 H        -4.2551997390        1.9205616021        0.2572127179
 H        -5.0527720882        1.1847142470        1.6715135389
 H        -3.6304549034        4.0201866784        6.5245293321
 H        -2.9701812807        4.7659156360        5.1331339953
 H         0.9747234415        2.5605799756        8.3615415178
 H         0.1526936448        1.8045047411        7.0021155208
 H         0.1457456187        5.8022672777        5.1812819722
 H        -1.2573545041        6.4210611567        6.2256190436
 H        -1.4585735379        5.5816585506        4.7901395624
 H        -0.4888683597        5.0374713151        8.6123785677
 H        -2.0009192139        5.2042146255        7.8811930845
 H        -1.5345338153        3.5776245914        8.2286647847
 H         3.1050637817        2.1070662666        6.5220841296
 H         2.7260801727        1.0174901798        7.7434634535
 H         2.2017674283       -2.7192398840        3.6883098798
 H         0.5377922448       -2.1472794440        4.4227644942
 H         3.5429260289        1.4555380712        3.0018910772
 H         4.5173229348        0.1047190011        3.2850654931
 H         4.6730308814        1.4136916815        4.4326119828
 H         3.3645158681       -1.8323985664        5.8663463284
 H         4.6560593275       -1.5822298314        4.7038298570
 H         4.5986977545       -0.2851291623        5.9652516487
 H         1.0289380334       -3.4904586765        2.0753916473
 H         0.3595279370       -1.8298473113        1.5333388607
 H        -0.6533665457       -6.6296319936        1.4979872104
 H        -2.3099806614       -6.6297727222        1.2074372714
 H        -0.0042200836       -5.8503763857        3.6626992839
 H        -1.5735782646       -6.2801719286        4.0601568736
 H        -1.0417016023       -4.8238613820        4.7730953561
 H        -3.5696769289       -5.2245363709        2.5139151179
 H        -3.3075482476       -3.9395577742        3.9156022518
 H        -3.3913296771       -3.5137234482        2.2271847084
 H        -1.1794632455       -7.7076514357       -0.7075974583
 H        -2.0461279704       -6.1075741890       -1.2587230370
 H        -1.2045877571       -3.0807334131       -3.0165724577
 H         0.0226947731       -2.0030685163       -2.5424110454
 H         2.4481998741       -5.8788782601       -3.3344224162
 H         1.3746508239       -5.7288693803       -4.5997058488
 H         1.2326115171       -7.2109225699       -3.6804939495
 H        -1.8475084998       -5.0741819549       -3.1398622506
 H        -1.1454578092       -6.1146822493       -4.5416401541
 H        -1.3368205385       -6.9218313503       -2.9894399173
 H         0.3867267768       -3.4138678314       -5.2274574856
 H         0.4892704899       -1.7049249210       -4.7599686187
 H         0.6528580409       -2.9458329941       -7.5609596390
 H        -0.4579127069       -4.4115212018       -7.8501656522
 H        -3.5183114949       -0.7428468147       -7.4321627430
 H        -3.3403480241       -0.5693063202       -5.7230895021
 H        -3.8959856742       -2.0658463937       -6.3491671204
 H         0.1324635845       -0.6949706724       -6.7402204493
 H        -1.0759663637        0.3813963643       -7.3243784802
 H        -0.7893907477        0.0745398928       -5.6616478460
 H         0.4199742464       -4.7481380397       -9.6025135406
 H        -0.8203532296       -3.6027476433      -10.1405229602
 H         2.9245788317       -0.7418327701       -8.3788834893
 H         3.3721995342       -1.0672748009      -10.2021172667
 H         3.2719746389        0.5009832441       -9.3586678080
 H         1.6379540607        0.0229715871      -12.7140689413
 H         1.5681385293       -1.7001520852      -13.2433166914
 H         2.9536838632       -1.0045491417      -12.2728449911
 H        -0.6747602789       -0.0293516399      -11.9263294345
 H        -0.7371165434       -1.6663215373      -12.1910935220
 H        -1.2333854153       -0.9585305222      -10.6974647099
 Na       -0.7741205479        0.6355940654        3.6342984765
