155

 C         3.0968120726        7.4451546400        3.2392157867
 C         1.7142071026        7.2261440319        2.7063851186
 C         1.6184403634        6.0773190432        1.6159775356
 C         0.0221960747        5.4810284428        1.7184816180
 C        -1.0465746042        5.7049095515        0.5625371312
 C         2.0218960262        6.5123401423        0.2057184387
 C         2.5164428445        4.8946901602        2.0163867861
 O         0.7094276454        7.7697951065        3.1104360470
 O        -0.1842010467        4.7428623882        2.6156075398
 C        -2.4058331204        5.4623030076        1.2422220098
 C        -2.7520028026        3.9437436932        1.3309701160
 C        -4.0032245386        3.4971319254        2.1907338502
 C        -3.6595162842        2.3468354634        3.3654415161
 C        -4.1831507257        2.4380827709        4.7856780880
 O        -2.1976914579        3.1840552178        0.6146207804
 O        -3.0063078814        1.3311163271        3.1595701433
 C        -5.0587856951        4.5412453716        2.6399716145
 C        -4.8151310909        2.5518952542        1.1539881456
 C        -3.2345650246        3.4701623812        5.4518171654
 C        -1.7213056117        3.0300415097        5.8656574490
 C        -0.7478047886        4.0599921637        6.4888725899
 C         0.7276653867        3.6044886277        6.3873230385
 C         1.1814381103        2.2940203483        7.0005020779
 C        -0.8581111495        5.5183511854        6.0440612065
 C        -1.1491397974        3.8813892993        8.0028441691
 O        -1.4085274338        1.9253016062        5.6298133728
 O         1.6417524439        4.3346034612        5.9848766277
 C         2.4806800554        1.7545165297        6.3630037217
 C         2.1543855316        0.4602607159        5.6749525559
 C         3.1464705950       -0.1204996686        4.6352645675
 C         2.0662234716       -0.7667064843        3.5526311393
 C         1.7690745258       -2.3082917948        3.7142856034
 O         1.0557083334       -0.0940639852        5.8726855021
 O         1.5387761281       -0.0505436508        2.7443366683
 C         4.0512547555        0.8784213570        4.0479728102
 C         3.8207707434       -1.3399785416        5.4149222405
 C         0.5820613940       -2.6556961467        2.7278632394
 C        -0.8768451782       -2.7171042526        3.1628551186
 C        -1.4958136733       -4.1647490195        2.7880305942
 C        -1.2264778378       -4.5992308253        1.2133125057
 C        -1.0569508262       -6.1233917065        0.8853530269
 C        -0.7996516611       -5.1641656346        3.7524583788
 C        -3.1421690545       -4.2263945856        2.9039159162
 O        -1.3601584040       -1.7642119936        3.7690063104
 O        -1.3430455547       -3.7967646891        0.2856746848
 C        -1.2188091735       -6.4019287861       -0.6236845730
 C         0.2569047142       -6.1919869823       -1.3011527053
 C         0.1281520045       -5.5724689629       -2.8518207421
 C         0.6498320098       -4.1279702303       -2.6732743357
 C        -0.2560932636       -2.9857516030       -2.9459099953
 O         1.2509730806       -6.2682746501       -0.6604002563
 O         1.7347242109       -3.9649902197       -2.1537116303
 C         1.1210299746       -6.5390208169       -3.5998787675
 C        -1.1679928972       -5.6773975914       -3.5620158615
 C        -0.2138713179       -2.4482997942       -4.4565787229
 C        -1.5872399133       -2.5159921645       -5.1010696626
 C        -1.7367232602       -1.6796835964       -6.4681238652
 C        -1.5307606902       -2.4856821512       -7.8105702621
 C        -0.1676889377       -2.9128878768       -8.2746977736
 C        -3.1948361321       -1.0971291500       -6.5701655305
 C        -0.8170819342       -0.4815868608       -6.5223104132
 O        -2.5013182010       -3.2083715982       -4.6749447538
 O        -2.5043278610       -2.8618138805       -8.3683264649
 C        -0.2173469280       -3.5314407536       -9.6826128512
 C         0.9463525055       -2.8076588199      -10.5163077673
 C         0.7605466913       -1.3007589302      -10.9653165471
 C         1.2366441330       -0.5433602167       -9.6825291329
 C         2.7303872166       -0.6120002613       -9.4929859556
 O         2.0398399401       -3.2455814757      -10.6147715809
 O         0.4579117348       -0.0055292249       -8.9704952421
 C         1.7173357080       -1.0428725556      -12.2511886619
 C        -0.7323020074       -1.1344359206      -11.2316947250
 H         3.6324236935        8.0443983758        2.6225805655
 H         3.1356709634        7.9570221731        4.1940600201
 H         3.6353548026        6.5258388012        3.5135777739
 H        -1.0296966106        6.6509998974       -0.0226094764
 H        -0.7499994335        4.8361194583       -0.1150778072
 H         1.5178437033        5.9143383496       -0.4544016991
 H         2.9820423468        6.0485499013        0.0315022228
 H         2.0274742525        7.5944453362       -0.0361361804
 H         3.5174130589        5.1715308086        2.2454108382
 H         2.2971915665        4.2937176320        2.8576470669
 H         2.4715700108        4.1001438103        1.2660113435
 H        -2.2084445036        5.9421004298        2.2084435180
 H        -3.2075607914        5.9158086278        0.6774565083
 H        -5.1688016564        2.8266874569        4.9965427747
 H        -4.0933756462        1.5355473590        5.3358244617
 H        -5.8563726530        4.6198033606        1.9962947332
 H        -4.4815183806        5.4685865135        2.5477381708
 H        -5.4164022337        4.4446289600        3.6041414178
 H        -5.0085297981        2.9351937582        0.1952721882
 H        -4.2668455101        1.6430829366        1.0382030519
 H        -5.7588409066        2.3671541867        1.6440598555
 H        -3.9591137208        3.7785271378        6.2406051304
 H        -3.2640182388        4.4087747457        4.7765599741
 H         1.4400666233        2.6730723192        7.9901202451
 H         0.2935888271        1.6476653204        7.0683425031
 H         0.1537226424        6.0111915521        6.1979968395
 H        -1.6282964142        6.0489310486        6.5815708721
 H        -1.0006692182        5.6973254249        4.9863596587
 H        -0.4148799348        4.5241393352        8.5330812205
 H        -2.1062456513        4.3830677118        8.2768802699
 H        -1.0675576141        2.8157832913        8.3463528588
 H         2.7705637990        2.5568483147        5.6089740795
 H         3.3946467332        1.7731961741        7.0496920847
 H         2.7287163942       -2.6359740929        3.2796968299
 H         1.6179645831       -2.4315731019        4.8303108795
 H         3.4192719816        1.4705736783        3.3615867334
 H         4.7933145996        0.4672372295        3.4019170312
 H         4.4908396973        1.4485349362        4.8576590517
 H         3.1378370155       -1.9826184824        5.9114394152
 H         4.2916005305       -1.9099551479        4.6344967268
 H         4.6091352130       -0.8202765743        5.9693180856
 H         0.8970681597       -3.5739459679        2.3150109851
 H         0.6152521995       -1.8056527346        1.9906636522
 H        -0.0329927255       -6.3689665187        1.1774094860
 H        -1.5800206675       -6.8588600206        1.4760754175
 H         0.1849575088       -4.9119401052        4.0694483191
 H        -0.5957582946       -6.1349931586        3.4186081268
 H        -1.3698666931       -5.2284896868        4.6810807683
 H        -3.5717072822       -5.2061376145        2.6712667301
 H        -3.3026326612       -3.8754737913        3.9078328472
 H        -3.6157706118       -3.4480876785        2.2805509096
 H        -1.4808649234       -7.4139204127       -0.9514840686
 H        -1.8361276869       -5.6932716438       -1.0797382242
 H        -1.2853696270       -3.0016639632       -2.5227926629
 H         0.1937033815       -2.2295363121       -2.3423401540
 H         2.1860231199       -6.3457036068       -3.2849714773
 H         1.0325698979       -6.3960961422       -4.6961827812
 H         0.8237243620       -7.5542107766       -3.3282888459
 H        -2.0630899186       -5.4082832686       -3.0591476998
 H        -1.0005147623       -5.0974198218       -4.4868368402
 H        -1.1954607341       -6.6909693092       -3.9207850936
 H         0.3390038994       -3.1376616837       -5.1228198203
 H         0.1173185416       -1.3984491826       -4.4993768441
 H         0.5782623685       -2.0867144399       -8.4061475536
 H         0.0595167569       -3.6027363918       -7.4982817074
 H        -3.5473218142       -0.7882441818       -7.5796539534
 H        -3.3687998218       -0.2259610009       -5.9440426405
 H        -3.8649639593       -1.9160416529       -6.2526440573
 H         0.2909957642       -0.6110855172       -6.5338425880
 H        -1.1616474275        0.1695591314       -7.3864377681
 H        -0.8526734905        0.1449567221       -5.6315787149
 H        -0.0269728236       -4.5759791624       -9.6468507544
 H        -1.2686827181       -3.4167963816      -10.1378573127
 H         2.9762913420       -0.4751098193       -8.4074562835
 H         3.3253284579       -1.2203874314      -10.1079043914
 H         2.8912283297        0.4083490870       -9.7724159168
 H         2.3592889200       -0.1387488516      -12.2562538461
 H         1.2169327959       -1.0782725821      -13.1122952719
 H         2.4056294063       -1.8748299704      -12.2672442346
 H        -1.0504742517       -0.3894082661      -12.0088435499
 H        -1.2599623768       -2.0616718005      -11.6259289545
 H        -1.2384227141       -0.7896882940      -10.3157984777
 Na       -0.8971117308        0.4072239211        3.6177403990
