155

 C         3.2283559637        7.2817452595        2.9851864125
 C         1.8078650457        6.9539904896        2.5549504568
 C         1.5983223117        5.9292880070        1.3949682657
 C         0.1447841320        5.3909858641        1.4893214446
 C        -1.0822719191        5.8475746137        0.5721103731
 C         1.7141982004        6.8475677204        0.1258820547
 C         2.5345120188        4.6497812241        1.5285570826
 O         0.9310641005        7.6736264674        2.9489440548
 O        -0.0118423476        4.4629869314        2.3243681315
 C        -2.4183620819        5.4608720381        1.2291261126
 C        -2.6569233919        4.0019514650        1.2909194251
 C        -4.0024094816        3.5184786811        2.0890245114
 C        -3.4431532060        2.4565225821        3.1028781156
 C        -3.8503536055        2.5196316723        4.5873162216
 O        -2.0471321726        3.1003859967        0.7091335442
 O        -2.7424907727        1.5202253556        2.7470883556
 C        -4.7383303770        4.6480611793        2.8015568513
 C        -4.9767511621        2.7577978377        1.1440696420
 C        -3.0244181858        3.4739338320        5.5834003603
 C        -1.6616591547        3.0315958014        5.6909030249
 C        -0.7537670539        3.9018822500        6.7460304089
 C         0.7465611736        3.6783966252        6.4539602376
 C         1.4297084027        2.5300482664        7.1357280492
 C        -1.1704615246        5.2870960199        6.4664110878
 C        -1.2055813123        3.5435492520        8.2853459647
 O        -1.2341132479        1.9756591216        5.1297971964
 O         1.3235320960        4.5021319613        5.8552938877
 C         2.3994854822        1.8907559531        6.0602602296
 C         2.0507549500        0.4057764226        5.6164182417
 C         3.1189126789       -0.3931534629        4.5864994845
 C         2.2439028913       -0.9355758091        3.4839040370
 C         1.8148992222       -2.4535169849        3.5523230082
 O         0.9685242939       -0.0674734492        5.8845377354
 O         1.5899134134       -0.1431634346        2.7919354327
 C         4.1825783775        0.6338224977        3.9512611720
 C         4.0236593677       -1.5215396981        5.3187889469
 C         0.7769210822       -2.7598891671        2.4879952887
 C        -0.6977191794       -2.8713460392        3.0026728883
 C        -1.4631271005       -4.2679820666        2.8341655854
 C        -1.1565540094       -4.5035682901        1.3283659821
 C        -0.8620766496       -5.8826916313        1.0112861980
 C        -0.8016093212       -5.1545873390        3.9302812043
 C        -2.9073153489       -3.8007068396        3.1921884240
 O        -1.2032063129       -1.9978327238        3.6871380447
 O        -1.2414865515       -3.5199299495        0.6203927927
 C        -1.2933744416       -6.2429476289       -0.3896356476
 C         0.0358760848       -6.0611573081       -1.2972112374
 C         0.1080567100       -5.5805400637       -2.8861676517
 C         0.6585923819       -4.1945222152       -2.7118115204
 C        -0.3545816926       -3.0792931873       -2.7968018514
 O         1.0826769083       -6.3393718367       -0.7714354263
 O         1.7761800043       -3.9060899931       -2.4398640614
 C         1.0724243993       -6.5924710558       -3.4353135976
 C        -1.3621780108       -5.7712600001       -3.5375040350
 C        -0.3336954907       -2.5030689569       -4.1719867052
 C        -1.6957113572       -2.4243348515       -5.0552556859
 C        -1.9237172582       -1.5258398129       -6.3727096086
 C        -1.7089774393       -2.3656205399       -7.6029204402
 C        -0.3171987201       -2.8070332905       -8.0273798991
 C        -3.2640848117       -1.0404430262       -6.2636722102
 C        -0.8555436757       -0.4497050383       -6.2423597729
 O        -2.6663201772       -3.0810056225       -4.7348667350
 O        -2.6520483620       -2.8830592677       -8.1753381711
 C        -0.3261352462       -3.4810046564       -9.4325267126
 C         0.8452456693       -2.9754467562      -10.3503084739
 C         0.5824699766       -1.2700325685      -10.9618958336
 C         1.1561006328       -0.4793387205       -9.7920763579
 C         2.7016090659       -0.4102081959       -9.5344427252
 O         1.9020121833       -3.5632280331      -10.6300917515
 O         0.5324822705        0.4757519807       -9.2310267272
 C         1.3093626393       -1.1473452535      -12.2877442381
 C        -0.8757201435       -0.8429347330      -11.1367016095
 H         3.8873668444        7.6370916208        2.0845196776
 H         3.3344585836        8.1044886443        3.6700629987
 H         3.6353724686        6.4669791228        3.5327854943
 H        -1.0627133538        6.9354497796        0.5733755312
 H        -1.0185771315        5.5660980222       -0.4356300531
 H         1.4753859256        6.2672420664       -0.8888468002
 H         2.7729159134        7.1641413389        0.0441363369
 H         1.0948988915        7.7233296100        0.3479918757
 H         3.4529471279        4.9500981247        1.0161305510
 H         3.0630224824        4.2527196464        2.4457315024
 H         2.1262667293        3.7693039350        1.0624937498
 H        -2.4808508816        6.0019895941        2.2164842831
 H        -3.2089516453        5.8050338735        0.4967058156
 H        -4.9485937685        2.7335904511        4.6713412410
 H        -3.7446671256        1.4026223095        4.8485315338
 H        -5.8502311560        4.5511341745        2.6798028654
 H        -4.4173274396        5.6825850695        2.6808251597
 H        -4.7988915725        4.4897182253        3.9305356373
 H        -4.4719770601        2.5324869581        0.1516117856
 H        -5.2835925224        1.7619491697        1.5262227631
 H        -5.8219359462        3.4224166111        0.8828623181
 H        -3.4407274339        3.5879967212        6.6128481485
 H        -3.1799923532        4.3756463528        5.1652550650
 H         2.1361780507        2.9859915788        7.8938160064
 H         0.6831361528        1.8787465817        7.6220353210
 H        -1.0259111930        5.8748280863        7.3096299854
 H        -2.1998922714        5.4997472097        6.1358708857
 H        -0.4181049381        5.6955765291        5.7605434349
 H        -0.7706504618        4.3286302877        8.9122160600
 H        -2.2939380841        3.5655718912        8.3505567739
 H        -0.8385604413        2.6018587002        8.6361863143
 H         2.7697419547        2.5922224579        5.3468548418
 H         3.2190332171        1.6123589328        6.6792476522
 H         2.5686132688       -3.1979393576        3.6571640125
 H         1.3530088248       -2.1032839016        4.5099700738
 H         3.7519590254        1.4997931682        3.5405523733
 H         4.7017076544        0.1205454329        3.0501509608
 H         4.9628508329        0.8377721305        4.7014570177
 H         3.4641449522       -2.2149231260        6.0184998024
 H         4.6638220392       -1.9722428773        4.5799846968
 H         4.5777801228       -0.8630603635        6.0219438285
 H         1.1731597274       -3.6916862767        1.9761508182
 H         0.8092548967       -1.8469244919        1.9217230419
 H         0.1027702216       -6.3887712529        1.2408000612
 H        -1.4788241217       -6.4739511072        1.7451187565
 H         0.2905297778       -4.9757310789        4.0754312225
 H        -0.7553838702       -6.2665923633        3.6949624278
 H        -1.1560685029       -5.1084884500        4.9420790794
 H        -3.4319954165       -4.7904690378        3.1115825489
 H        -2.9750379986       -3.3819554862        4.2080853928
 H        -3.3378671076       -3.1217381296        2.4621346654
 H        -1.6437686113       -7.3044122506       -0.4607503981
 H        -2.0898382505       -5.5455486016       -0.8430956315
 H        -1.2674868427       -3.5363756943       -2.5033950160
 H        -0.2097344896       -2.3308674927       -1.9569810189
 H         1.8749418190       -6.8211541169       -2.7451003653
 H         1.4873982307       -6.1561812867       -4.3878260189
 H         0.4995216873       -7.5068928566       -3.6728317128
 H        -1.9974299590       -5.1943924595       -2.9082723413
 H        -1.2906181602       -5.4530092935       -4.6019546798
 H        -1.7257045355       -6.7543810958       -3.4171180645
 H         0.3951922965       -3.1122195568       -4.7334021573
 H        -0.0328341917       -1.4296183859       -4.1067638941
 H         0.3033858465       -1.9858532752       -8.2578242163
 H         0.1090862394       -3.4874453246       -7.1751696303
 H        -3.3630152040       -0.2734841376       -7.0018214515
 H        -3.4081427338       -0.4483168566       -5.3392065867
 H        -4.0411563809       -1.8049353970       -6.4800727512
 H         0.1821842454       -0.6728669801       -6.1402473749
 H        -0.9646989444        0.1513351986       -7.1273533614
 H        -1.0207287618        0.2274268764       -5.3788708349
 H        -0.3296080525       -4.6163432980       -9.4425405704
 H        -1.1674861752       -3.2396153056       -9.9703340121
 H         2.9839323154        0.1628950660       -8.6910044639
 H         3.0329570929       -1.4927206040       -9.5610512148
 H         3.2823351440        0.0174260535      -10.4654809197
 H         1.9073851815       -0.2859744050      -12.4001937544
 H         0.5455552062       -1.0627211501      -13.1776703793
 H         1.9973750109       -1.9525808128      -12.5189541723
 H        -1.0976309143        0.2101887544      -11.1753293813
 H        -1.2496407609       -1.2266565233      -12.0712395318
 H        -1.5506207631       -1.2953570652      -10.3602301920
 Na       -0.9077903399        0.1992724591        3.9216402450
