155

 C         3.7594715134        5.0513812445        0.2964737089
 C         2.9591236853        6.2379550838       -0.1928575428
 C         1.7503241632        5.9056404423       -0.9523440362
 C         0.8701502639        4.8657230450       -0.2058743463
 C         0.1742053768        5.2892359303        1.1162473739
 C         0.9320712296        7.1887844458       -1.2976947687
 C         2.2153958486        5.0314014508       -2.2657861864
 O         3.1954406341        7.3978160253        0.0449613674
 O         0.7356313122        3.7799648740       -0.6856998353
 C        -0.5497870685        4.1430526348        1.7524997899
 C        -2.0831408249        4.1993137181        1.6346606854
 C        -3.0535570353        2.7929375862        1.7676260490
 C        -2.2176899210        1.8841607028        2.6337882051
 C        -2.5663032594        1.4745494853        4.0856971010
 O        -2.5933043452        5.1092418225        1.1231733042
 O        -1.1172582041        1.5903837574        2.2120518415
 C        -4.4679439369        3.0649321747        2.3761702258
 C        -2.9899831641        2.3186579656        0.2374206152
 C        -2.0272817116        2.5784165417        5.0794260575
 C        -0.6483482404        2.4777468026        5.6439566571
 C        -0.4354613048        2.6841158854        7.1341999331
 C         1.1181318882        2.7976736796        7.2456806571
 C         2.0072204627        1.4860186547        7.6839484584
 C        -0.9142299601        4.0553831665        7.6563859084
 C        -1.0583065207        1.4361419962        7.8647449860
 O         0.3144688706        2.2755942349        4.9496004876
 O         1.7081887691        3.8142396527        6.9844725211
 C         3.1501601311        1.1418936542        6.7366462489
 C         2.6840559840        0.2934369323        5.5167854412
 C         3.7136176725       -0.1483219760        4.3892908821
 C         2.8425678209       -0.5062777124        3.2078200274
 C         2.5554009955       -1.9644497167        2.8194981374
 O         1.5422995154       -0.1705398101        5.5510957197
 O         2.4431915129        0.5079855038        2.6248151087
 C         4.5861379600        1.0291883558        3.8282196806
 C         4.6640139986       -1.0807008585        4.8628632723
 C         1.1704336266       -2.3910860650        2.3207309523
 C        -0.1912474662       -2.3984290069        3.2637211849
 C        -0.9111639268       -3.8560136356        3.1991781820
 C        -1.7147043649       -3.8890607845        1.6819627913
 C        -2.3857554134       -5.2122094142        1.3464507846
 C         0.1950413169       -4.9532159002        3.2827308243
 C        -1.9599703225       -3.9356717967        4.3406844250
 O        -0.6395278151       -1.5421564323        4.0035647628
 O        -1.8242365123       -2.8894321593        1.0661109012
 C        -2.3870262584       -5.4670341084       -0.2226742048
 C        -0.7728837930       -5.6816736772       -0.6779796884
 C        -0.5876946833       -6.0674976801       -2.1798701860
 C        -0.8195644450       -4.8239890767       -3.2298399833
 C        -0.6287431232       -3.4750120667       -2.6002989760
 O         0.0906350345       -5.5706615709        0.2258175902
 O        -0.9503023219       -5.0128764521       -4.3971660581
 C         0.8955703224       -6.4996720919       -2.4422552161
 C        -1.4886062242       -7.2634800152       -2.6508944286
 C        -0.8593353674       -2.3144640820       -3.8803981956
 C        -2.2636615860       -1.6635107080       -3.8045495688
 C        -2.5706066748       -0.3807482709       -4.7031209746
 C        -2.9267567059       -0.9056854945       -6.1313658549
 C        -1.8105906642       -1.5907390195       -6.9695769817
 C        -3.7853667429        0.4744835166       -4.2510792584
 C        -1.3461775089        0.4618691698       -4.9205608022
 O        -3.2524647551       -2.1504862379       -3.1268678995
 O        -4.0445572451       -0.7974090073       -6.6521579868
 C        -2.3102225274       -2.3937889646       -8.1597846221
 C        -1.1039106808       -2.3220544865       -9.0154503306
 C        -1.0076987585       -1.2088549082      -10.2754386091
 C         0.0712418932       -0.1267124829       -9.9460872764
 C         1.4805142467       -0.3669192367      -10.4970710218
 O        -0.1753603774       -3.1247587679       -8.9109911713
 O        -0.2608893289        0.9697264888       -9.4338798767
 C        -0.6267349215       -2.1531678634      -11.4961248487
 C        -2.4206351576       -0.5013193859      -10.2793819614
 H         4.5485622969        4.6739053137       -0.4083706346
 H         4.3854005475        5.3619051442        1.1134474184
 H         3.0530417324        4.2820624005        0.5841509444
 H         0.9427625471        5.5307536649        1.8599526036
 H        -0.5889011185        6.0393615662        0.7435159034
 H         1.7208154239        7.8145379724       -1.7700141306
 H         0.4456364051        7.5777981254       -0.3465561693
 H         0.1947205349        7.0858565455       -2.1004834337
 H         2.6822805701        5.6679154904       -3.0961699254
 H         2.9658363239        4.3172145270       -2.0162495380
 H         1.3201766012        4.5840237412       -2.8056643830
 H        -0.2809889287        3.2392935865        1.1382810276
 H        -0.1531080364        3.8653348739        2.6780753793
 H        -3.6889402461        1.2926086471        4.2882628056
 H        -2.0703066254        0.5500031824        4.3744136104
 H        -5.0007119154        2.1084755962        2.3975549004
 H        -4.8602933996        3.8094125338        1.7196881517
 H        -4.5119784962        3.4222072063        3.4034104674
 H        -2.9308946755        3.0589570677       -0.5027125997
 H        -2.1278462522        1.6871484182        0.1132354719
 H        -3.8989691348        1.7889469335        0.2611851163
 H        -2.6512375842        2.6055443871        5.9650702668
 H        -2.0601176724        3.5024102167        4.5228077666
 H         2.4401356951        1.8723013155        8.5459490317
 H         1.4526995822        0.5950520853        7.8120127868
 H        -0.6006285635        4.2364120805        8.7186840213
 H        -1.9623917084        4.0481479334        7.5819112161
 H        -0.4315863203        4.7340171623        7.0076560934
 H        -1.2281190738        1.8732152415        8.8581041959
 H        -2.0240117439        1.1737537276        7.4109606644
 H        -0.5823953140        0.4587155117        8.0374566377
 H         3.4260527485        2.0704523546        6.3239802714
 H         4.0428110105        0.7599775485        7.2932287846
 H         3.3075118740       -2.0977717406        2.0174225383
 H         2.7721699028       -2.6686070457        3.6283003209
 H         3.8980405127        1.7776698250        3.4949406123
 H         5.2818652061        0.7141079561        3.0205678288
 H         5.3055045256        1.3469081245        4.5792588968
 H         4.2854872215       -2.0455821456        5.2992621997
 H         5.4717440898       -1.2677753517        4.1325901952
 H         5.3333557661       -0.7476162238        5.7710495698
 H         1.2484983520       -3.3704280929        1.8363167337
 H         0.8958413056       -1.7162611224        1.4720911997
 H        -1.8936761951       -6.0956165529        1.8685289427
 H        -3.4059387545       -4.9231458167        1.5331591791
 H         0.6988599233       -5.0919242634        2.3680590682
 H        -0.3917535227       -5.7441416313        3.6232135187
 H         0.9780836398       -4.6959517887        4.0174082036
 H        -2.5878251202       -4.7702812192        4.4202138689
 H        -1.3831999403       -4.0905012282        5.2874205512
 H        -2.6181968715       -3.0912826709        4.4147036338
 H        -3.0733362562       -6.3564595664       -0.2085219910
 H        -2.8682611175       -4.7087839378       -0.8496125131
 H        -1.3725570531       -3.1677814482       -1.8169891884
 H         0.4309345112       -3.2703219812       -2.2615544759
 H         1.4260474700       -5.5364219830       -2.6337460336
 H         0.9312204458       -6.9661861116       -3.3796225206
 H         1.5734115402       -7.2016071658       -1.8947443861
 H        -2.5497153830       -7.0603154180       -2.7176906401
 H        -1.2201162239       -7.3592164165       -3.6743927345
 H        -1.3794705393       -8.1808442110       -2.0553683432
 H        -0.7633237836       -2.7815327788       -4.8169814793
 H        -0.1675214704       -1.4895577116       -3.6675741878
 H        -1.0909000128       -0.9118524056       -7.3574867214
 H        -1.3237628606       -2.3518890166       -6.3354463039
 H        -3.4749137869        1.5640323613       -4.2479920584
 H        -4.0364120422        0.2740347346       -3.1978699592
 H        -4.6562803444        0.3496095145       -4.8420986719
 H        -0.4202100964       -0.1869611814       -4.8212069598
 H        -1.1464549547        0.9762005139       -5.8482276014
 H        -1.4059900577        1.2341941395       -4.1110860487
 H        -2.4911722824       -3.3918125432       -7.8681893489
 H        -3.3792073817       -2.1239481687       -8.5406071752
 H         1.4862310068       -0.4949583529      -11.5049771857
 H         2.0256055622        0.4774603458      -10.1794639250
 H         2.0733867182       -1.2038615819      -10.0093596794
 H        -1.2564643107       -2.9892757959      -11.7333120449
 H         0.4831537294       -2.5098135391      -11.3686071574
 H        -0.6645584530       -1.5944155508      -12.4207799075
 H        -2.5060024808       -0.1072097238      -11.3435380403
 H        -3.1522177599       -1.2778192904      -10.1055535913
 H        -2.2673647193        0.3556146376       -9.6288161131
 Na        0.4598127001        0.2628690835        3.5012621143
