155

 C         3.7464049167        4.8771177677       -0.0018824110
 C         3.0827340901        6.1659104001       -0.4407277227
 C         1.6386271456        5.9710965242       -1.2716586004
 C         0.8410094390        4.9000834956       -0.4595320785
 C         0.3641626441        5.3021816309        1.0211255304
 C         0.8123043041        7.2647459599       -1.5722472255
 C         1.9666181742        5.4094992202       -2.7338084661
 O         3.6134349789        7.2193668284       -0.2734494377
 O         0.9284375785        3.6861236423       -0.6638481989
 C        -0.4911947604        4.0390956342        1.6026941006
 C        -1.9844403876        4.1615746809        1.5560985310
 C        -2.8869590017        2.7567509981        1.6580502980
 C        -2.0461623078        1.8199425816        2.5447816463
 C        -2.4920375069        1.4918491654        3.9722099348
 O        -2.5631237678        5.2365162403        1.5891545206
 O        -1.0939669408        1.1879434639        2.0537137080
 C        -4.2215404280        3.2477863134        2.0652722032
 C        -2.9237144053        2.1632233822        0.1613087760
 C        -2.3066589322        2.3739653246        5.2131961797
 C        -0.8466917088        2.4125092878        5.6664341610
 C        -0.3795286691        2.6319387640        7.2519679064
 C         1.2938285887        2.4919534166        7.2674206323
 C         2.0582767802        1.1399382919        7.8060838174
 C        -0.8701819754        4.0187069699        7.6864960035
 C        -1.0772565556        1.5921768562        8.1344830220
 O         0.0488881201        2.2185386602        4.9013598397
 O         1.8976707159        3.4450372532        6.8635547378
 C         3.3479892187        0.8459916900        6.9415124753
 C         2.9855447744        0.2293134138        5.5973147760
 C         3.9153209506       -0.1747401878        4.3389736870
 C         2.7679595822       -0.7081294850        3.1966559780
 C         2.4315515957       -2.2272973586        2.8569248061
 O         1.8261557130        0.0077660975        5.3740563313
 O         2.2695312416        0.1896812961        2.6033236282
 C         4.5471236761        1.1555489951        3.8116692664
 C         4.8480110813       -1.2215318277        4.7488167240
 C         1.0460454380       -2.1625638618        2.0842717663
 C        -0.0868699955       -2.4517012728        3.0617427569
 C        -0.7904649730       -3.8520668799        3.1311725561
 C        -1.5548572655       -3.7294551995        1.7880027042
 C        -2.4025813136       -5.0091348314        1.4327518232
 C         0.2446173257       -5.0500853873        3.0773618644
 C        -1.7534972988       -3.7999240471        4.3439242107
 O        -0.3868715971       -1.6235644978        3.9268043906
 O        -1.6480461627       -2.6702244422        1.1680701849
 C        -2.3292628948       -5.3450169107       -0.0104146206
 C        -0.8239454621       -5.4131400734       -0.5727098047
 C        -0.6884705711       -6.0141691374       -2.0816175889
 C        -1.0487876101       -4.8385160897       -3.1469361303
 C        -0.7376792143       -3.4279204434       -2.6875105187
 O         0.2365131109       -5.2319851882       -0.0173063207
 O        -1.3191163565       -5.1021257613       -4.3495964240
 C         0.7371001304       -6.2075274076       -2.3412338693
 C        -1.5957242671       -7.2151884803       -2.3814526293
 C        -0.8494360362       -2.3639946668       -3.7813016947
 C        -2.2590298634       -1.5554728355       -3.6167166612
 C        -2.5241943982       -0.2834045397       -4.4938296301
 C        -2.9252013334       -0.9659408722       -5.9369986232
 C        -1.9442542816       -1.5540957923       -6.7696179163
 C        -3.6789879453        0.4333555864       -3.8466962165
 C        -1.2620441188        0.6136959789       -4.5891675941
 O        -3.0540745966       -1.9719410032       -2.8803885892
 O        -4.0387547138       -0.9332609481       -6.3168950238
 C        -2.4427569869       -2.1898559708       -8.1096619358
 C        -1.2461193842       -2.2707495415       -9.1138642377
 C        -1.2040746590       -1.2550443081      -10.3562466576
 C        -0.1501371429       -0.2079097542       -9.9359977662
 C         1.3895301272       -0.4118404903      -10.1887680554
 O        -0.3954832043       -3.0956113203       -8.9057626126
 O        -0.4898713156        0.7629740170       -9.3760739611
 C        -0.8045767368       -2.0541302246      -11.6035719623
 C        -2.6177035865       -0.4487792244      -10.7529686043
 H         4.4354377047        4.6106039372       -0.7460313187
 H         4.4234847815        5.0733985706        0.8514704135
 H         2.9827351856        4.0502225109        0.1241517897
 H         1.2687035225        5.1328928351        1.6082816222
 H        -0.0885584469        6.2554779461        0.9467915831
 H         1.1337851572        8.0602368499       -0.9378248865
 H        -0.1573070165        6.9628496688       -1.2353374097
 H         1.0183423388        7.7472823470       -2.5633249119
 H         2.6778469871        6.0811492959       -3.1585271467
 H         2.4793118908        4.4188747905       -2.6171825564
 H         1.2025720612        5.4270601705       -3.4741376587
 H        -0.1593302461        3.1702118047        1.0753028179
 H        -0.3191992206        3.8090535640        2.7097284605
 H        -3.5265430067        1.4994017964        3.8480251666
 H        -2.2408297051        0.4821970481        4.2675095773
 H        -4.8514219306        2.3285689430        1.9399350668
 H        -4.5257226625        4.2388016956        1.6091394465
 H        -4.1902693194        3.3599627113        3.1999893684
 H        -3.6572510657        2.8633346025       -0.3158318371
 H        -1.9979072614        2.2987166831       -0.3819318378
 H        -3.4572879409        1.1919439900        0.2369173934
 H        -2.8383257434        1.9664149540        6.0533632015
 H        -2.7284252908        3.4161681307        4.8970369963
 H         2.2636534950        1.4581190405        8.8821362258
 H         1.3996291124        0.2714498351        7.6297363530
 H        -0.9784263525        3.7559568671        8.7091613088
 H        -1.8941349346        4.2680218992        7.3114168627
 H        -0.0999775304        4.8158660357        7.5488649973
 H        -0.5401198355        1.3648009151        9.0289508477
 H        -2.0735309024        1.8891061608        8.4678698501
 H        -1.1954437541        0.6821161205        7.5961353477
 H         3.9024909423        1.8370290402        6.7373923049
 H         4.0446853066        0.2195183044        7.4921002120
 H         3.2242269840       -2.5326837589        2.1994666013
 H         2.2423721776       -2.7979934100        3.8309003273
 H         3.8540360552        1.9545006528        3.3954482726
 H         5.3278191903        0.9628875527        3.1433902354
 H         5.1328429647        1.3553993248        4.6986634346
 H         4.4342423461       -1.8082681410        5.5689575418
 H         5.3347170430       -1.8990320540        4.0562947080
 H         5.6919658820       -0.8348489531        5.1350981290
 H         1.0262329802       -2.9665058336        1.3068684095
 H         1.0676497984       -1.2109381760        1.6043184690
 H        -1.8749195495       -5.7671176480        1.9242189115
 H        -3.4259898836       -4.6315095871        1.6616979428
 H         0.9611942223       -4.7622203445        2.2667750260
 H        -0.3504976687       -5.9965575986        3.0160187289
 H         0.7663084205       -5.0980523052        4.0542368879
 H        -2.3404115059       -4.7686799459        4.4824804825
 H        -1.3354972934       -3.7540858075        5.3135206484
 H        -2.6101693576       -3.0755391946        4.1811331745
 H        -2.7671467377       -6.3379615967       -0.1395296959
 H        -2.8860514721       -4.6708167849       -0.6706980148
 H        -1.5112988620       -3.0578545783       -2.0572802405
 H         0.2252956444       -3.2214460238       -2.3374797533
 H         1.3155188515       -5.3573070192       -2.0525711756
 H         1.0350852518       -6.5056442738       -3.3660823499
 H         1.1419280665       -7.0335783795       -1.8438221243
 H        -2.6797730304       -6.9689553092       -2.1801617358
 H        -1.6811700359       -7.2264261305       -3.5106821256
 H        -1.2951796519       -8.2636013939       -2.0343792132
 H        -1.1852034145       -2.9756965433       -4.7072240967
 H         0.1252980286       -1.8351794601       -3.8070663987
 H        -1.3084566158       -0.6987556717       -7.0694357315
 H        -1.4058726165       -2.2644894360       -6.1570408807
 H        -3.5559247693        1.5020553849       -3.9422367081
 H        -3.7757827107        0.2618338570       -2.7650480550
 H        -4.6324054004        0.0925214632       -4.3732683456
 H        -0.4449505069        0.3387245568       -5.1829709434
 H        -1.6770290585        1.4998757379       -5.0978763384
 H        -0.9783524180        1.0214025850       -3.6653654364
 H        -2.8478035891       -3.2433580623       -7.9573745049
 H        -3.2876566976       -1.7221221176       -8.3821479724
 H         1.4655086439       -1.1387369187      -11.0213343186
 H         2.0278682762        0.4908166843      -10.3965976629
 H         1.8550886239       -0.8316561735       -9.3293077421
 H        -1.7126109744       -2.2835099363      -12.2233635769
 H        -0.3826833643       -2.9554976588      -11.2822986434
 H        -0.0997147728       -1.6067934931      -12.3382862184
 H        -2.3494468528        0.4206699762      -11.2312878018
 H        -3.1960722868       -1.2304142100      -11.2249605660
 H        -2.9717713926       -0.1705638752       -9.7822764759
 Na        0.2003318683        0.6171594379        3.6989354340
