155

 C         3.6236764854        5.8820630036       -4.4688731600
 C         3.2995946980        5.8085423950       -2.9531622802
 C         1.6517837380        6.0950677534       -2.5485325444
 C         1.1070041738        4.8050236559       -1.5211455156
 C         0.2700847042        5.3105339888       -0.2945804582
 C         1.7528738925        7.4639455711       -1.7817921299
 C         0.6314697728        6.1586317814       -3.7511883948
 O         4.0960825734        5.3504889254       -2.1849667367
 O         1.1261124428        3.6698855065       -1.8792578878
 C        -0.1101636255        4.1279926307        0.5164863964
 C        -1.0941390919        4.5404245254        1.4956424935
 C        -2.3588436876        3.5951629913        2.0186583909
 C        -1.7027992519        2.3306770679        2.5608409326
 C        -2.1021080964        1.8247305260        3.9638261197
 O        -0.8890155104        5.5660528661        2.1362986883
 O        -0.9289392529        1.5989634978        1.9430888006
 C        -3.1687214509        4.5452431102        3.1688522426
 C        -3.3299814184        3.3680686267        0.9419572954
 C        -1.4182064247        2.6653327130        5.1793269544
 C        -0.0709698502        2.1076421223        5.5389205645
 C         0.5308851680        2.6183010958        6.9284597247
 C         1.9088238896        2.0163694873        7.4231579283
 C         2.0411167431        0.4950808331        7.8176809491
 C         0.7593277028        4.1347804978        6.6488949240
 C        -0.3732354731        2.2628630028        8.0993392642
 O         0.5937457392        1.4079263162        4.7776506759
 O         2.8458244130        2.7177567297        7.6384749914
 C         3.2434841054       -0.1790510562        7.2076902461
 C         2.9463181258       -0.5467160951        5.6891608871
 C         3.9431751215       -0.7872914762        4.5691037038
 C         3.1747217181       -1.3694751787        3.1957879081
 C         3.0147983797       -2.8949333757        2.9837538946
 O         1.7682337085       -0.7294920186        5.6125667753
 O         2.7308454311       -0.6152162024        2.3471195967
 C         4.7081986005        0.5129256530        4.3305391487
 C         4.8526797982       -1.9553569255        5.1379933438
 C         1.7896871350       -3.4983108726        2.2974285565
 C         0.5927686713       -3.0534566012        3.1527269264
 C        -0.3952947516       -4.1060907981        3.7367986354
 C        -1.4605828143       -4.4892258853        2.6376847028
 C        -1.7338652339       -5.9417508965        2.0510337342
 C         0.4075544578       -5.2606321031        4.2666637615
 C        -1.1338539241       -3.4305355434        4.9667430753
 O         0.3545134055       -1.8789111387        3.3290475013
 O        -2.1588466233       -3.5472786278        2.1487007554
 C        -2.0369979029       -5.8291321725        0.4797552283
 C        -0.8882794349       -5.6710239853       -0.5730102815
 C        -1.1952674641       -5.6652587505       -2.0687862060
 C        -1.4691713379       -4.1606132210       -2.5711028189
 C        -0.8096472275       -3.4912561805       -3.8030950867
 O         0.2950333603       -5.5277929436       -0.0698253691
 O        -2.3598240475       -3.5946396682       -1.9230743869
 C         0.0550863006       -6.3034424989       -2.7491835517
 C        -2.5698667240       -6.4127629863       -2.6105940210
 C        -1.7201399338       -2.5384901508       -4.4429957519
 C        -1.4724157373       -1.1190801902       -3.8928566669
 C        -2.6320374499       -0.0103025441       -4.1406767004
 C        -3.6552041127       -0.6123589929       -5.1235836983
 C        -3.5366663029       -0.0965062979       -6.6547878323
 C        -3.2844538761        0.3076396472       -2.7695698860
 C        -1.9928273451        1.2350364024       -4.6838017338
 O        -0.3834540574       -0.8218749220       -3.3560769599
 O        -4.5583992964       -1.3004854020       -4.7635170507
 C        -4.3512796567       -1.0427663092       -7.7037638305
 C        -3.2705519116       -1.7585768861       -8.5903277274
 C        -2.6073963459       -0.8963734626       -9.8386366089
 C        -1.3842885337       -0.0851040116       -9.2601646217
 C        -0.0558690086       -0.6538285590       -9.4152316788
 O        -3.0809259825       -2.9185067417       -8.4673851346
 O        -1.5271408655        1.0936530311       -8.8094477701
 C        -2.3569322123       -2.0278015471      -10.9542185363
 C        -3.5825381246        0.2105965374      -10.1870284601
 H         3.2315671076        6.7424801006       -5.0753644856
 H         4.6603304272        5.8379319334       -4.7112577695
 H         3.3515460014        4.9405615554       -4.7228867334
 H         0.7244594867        5.9699992930        0.4759753957
 H        -0.6201327323        5.9203232929       -0.7290905999
 H         2.2412671159        7.3381508143       -0.7507518948
 H         0.7508156885        7.8551641389       -1.7457164735
 H         2.4402149751        8.1754468940       -2.0943185160
 H         1.1276200129        6.6127996752       -4.6477778867
 H         0.2444252143        5.1964233885       -3.9050121026
 H        -0.1439991416        6.8931617217       -3.4575084319
 H        -0.3733305335        3.1479839250       -0.0185867891
 H         0.6486147529        3.8130063584        1.1911723619
 H        -3.1903161701        1.9838673625        4.0021356621
 H        -1.8996695567        0.7584140037        4.0628631846
 H        -3.5819882023        3.9238671251        3.9453468691
 H        -3.7718510475        5.2007173563        2.5181978944
 H        -2.3776652140        5.2164785469        3.5098087177
 H        -3.1207078198        3.8058619034       -0.0899451401
 H        -3.5807235671        2.2762756604        0.8381619453
 H        -4.3310744909        3.5280039740        1.2947682560
 H        -2.1119971949        2.4712826072        6.1851704560
 H        -1.3723889689        3.7541402322        5.0492931244
 H         2.1395109388        0.2864173677        8.8556782788
 H         1.1097980079       -0.0031461774        7.4549337213
 H         1.1283242442        4.6791081984        7.5603315085
 H        -0.2100106331        4.5410306425        6.3818915167
 H         1.4808295328        4.1269707963        5.8223815077
 H         0.0063066069        2.8053302358        8.9362118667
 H        -1.3856429860        2.5304552424        7.9964971845
 H        -0.3127253978        1.2491305565        8.3447456726
 H         4.1760888583        0.3529035068        7.4395515696
 H         3.2915429699       -1.2206136852        7.5488195184
 H         3.8439741389       -3.0353073230        2.3145324360
 H         3.3365056892       -3.4662406908        3.8445088989
 H         4.1886776758        1.2787788077        3.8755982423
 H         5.6679198629        0.3192388484        3.7365986985
 H         5.0966143528        0.6997282362        5.3214261163
 H         4.2318072740       -2.7936282411        5.3305025778
 H         5.7586370513       -2.1154835693        4.5249866906
 H         5.3406215728       -1.5670982873        6.0556040137
 H         1.7379619002       -4.6196160949        2.2921307035
 H         1.5996580245       -3.2366148530        1.2448452125
 H        -0.8968776022       -6.5940868567        2.1539227985
 H        -2.5398076932       -6.5570566853        2.4299538551
 H         0.9915504238       -5.6541748316        3.4287000155
 H        -0.2709482245       -6.0318306597        4.6109931239
 H         0.9483058543       -4.9916227033        5.2074007625
 H        -1.7773217716       -4.0784864483        5.5251950722
 H        -0.5635452212       -3.0761203978        5.8636627437
 H        -1.8766506781       -2.7827175005        4.6006401068
 H        -2.6994544376       -6.6416216339        0.0221506886
 H        -2.5921058152       -4.8526030047        0.4853924613
 H         0.1758664519       -3.0490962580       -3.5470763911
 H        -0.5455491557       -4.4165462399       -4.4801493824
 H         0.9226587932       -5.6942577812       -2.6950413580
 H        -0.0714916564       -6.5641355359       -3.7693884688
 H         0.3693592922       -7.3060832165       -2.4071419994
 H        -3.5234918772       -6.3497722747       -2.0789477462
 H        -2.9713798294       -6.1034219063       -3.6112852208
 H        -2.3929465441       -7.4406737552       -2.4210692811
 H        -2.7477764819       -2.6055403726       -4.5128736705
 H        -1.5745525228       -2.4491185054       -5.4829909708
 H        -4.2154518296        0.7780711795       -6.4354683863
 H        -2.6342495970        0.3097257081       -7.1544975791
 H        -3.7656521647        1.2927907887       -3.0146742648
 H        -2.5337487426        0.4642634997       -1.9604125277
 H        -3.9852897943       -0.4668581546       -2.4540215304
 H        -1.5480073893        0.9314974317       -5.6228061984
 H        -2.6206336089        2.0350664023       -4.8079142749
 H        -1.1068201946        1.5243901680       -4.1455108787
 H        -5.0008276524       -1.7292437698       -7.3802635961
 H        -5.1386801076       -0.3598954292       -8.2549049990
 H         0.6772586371       -0.0232736632       -8.8603465996
 H        -0.0446279409       -1.7924752960       -9.2311901218
 H         0.1546157215       -0.5517042442      -10.4846273775
 H        -3.3260844889       -2.4035085419      -11.3041741634
 H        -1.7712474990       -2.8024614462      -10.5673015540
 H        -1.9424072493       -1.4681406702      -11.8112368765
 H        -3.1793179730        0.7760341277      -11.0485232136
 H        -4.4176246894       -0.3642311233      -10.3932391854
 H        -3.5695860384        0.8801540242       -9.3685651559
 Na        0.7440249120        0.1724717606        2.8449986942
