155

 C         3.7841014271        6.1755543270       -5.0084207289
 C         2.6973811943        5.4625223867       -4.2229295587
 C         1.6146825996        6.2163928628       -3.3136403708
 C         1.0216890715        5.1760038948       -2.3872645721
 C         1.3081801370        5.2085592125       -0.8694907572
 C         2.4071006442        7.4192578890       -2.6812323723
 C         0.5976357043        6.6332532773       -4.3759392592
 O         2.4257832485        4.4096659998       -4.7574560979
 O         0.1557544681        4.3721641978       -2.7961938918
 C         0.4146055908        4.1182044549       -0.1983951134
 C        -0.0547020750        4.4704055880        1.2340778185
 C        -1.3175541752        3.6319197109        1.7532299423
 C        -0.8429163851        2.5487841385        2.8203825467
 C        -1.0009411501        2.6717519181        4.3825616413
 O         0.3387688991        5.4420972176        1.8583217664
 O        -0.3347979171        1.5074014565        2.3158018768
 C        -2.2016594939        4.7421868152        2.5330452407
 C        -2.1045735123        2.8452042576        0.7798162195
 C         0.1292409306        3.4746789481        5.0980292572
 C         1.3348391548        2.5595199903        5.5767286603
 C         1.9140876510        2.9437579667        6.9116265528
 C         3.2554359310        2.1458951355        7.3510626362
 C         3.2985160300        0.5694386361        7.9762213644
 C         1.9589324247        4.5012249337        6.9630738630
 C         0.8189542014        2.5063702442        7.9739654797
 O         1.7015262514        1.6894860670        4.8667036716
 O         4.3167030967        2.7002207488        7.2703903034
 C         3.7910410006       -0.5254461137        7.0666685375
 C         2.9762654786       -0.8725224410        5.8282965894
 C         3.8519847199       -1.5709105595        4.6397920660
 C         2.9179344645       -1.8736108960        3.4118046975
 C         2.3785473838       -3.3340989981        3.0761472497
 O         1.8022302847       -0.7544177240        5.7848344682
 O         2.6974434882       -0.9398140317        2.6613518406
 C         4.9751391734       -0.5994722169        4.0339424817
 C         4.5029716953       -2.9999314550        5.1800379774
 C         0.9221911424       -3.2815937274        2.4821408206
 C        -0.2879574507       -3.1401129608        3.3049714096
 C        -0.9098072022       -4.3568320525        4.0242179775
 C        -1.8608990618       -5.1044212980        2.7351465056
 C        -1.0810810275       -5.8053190240        1.5397562202
 C         0.2237211754       -5.2621228152        4.3610886219
 C        -1.8033702193       -3.8876938001        5.1149495529
 O        -0.7772368887       -2.0223511421        3.4282076252
 O        -3.0528665754       -5.1065401707        2.6588847024
 C        -1.4522304011       -5.2202667114        0.1705692296
 C        -0.4939899162       -5.5909885642       -1.0262149226
 C        -1.0139216243       -5.5639868621       -2.5040152254
 C        -1.5238912002       -4.1113135809       -2.8571298662
 C        -2.4426619315       -3.9226545797       -4.1196331360
 O         0.7374219969       -5.8048927551       -0.7476819560
 O        -1.2712547257       -3.2006361449       -2.1001011717
 C         0.2513068134       -5.6959383152       -3.4729033477
 C        -2.0776312337       -6.6322324018       -2.7114794831
 C        -3.1943046806       -2.5591873536       -3.8963798794
 C        -2.4842332981       -1.2221783769       -4.3511655647
 C        -2.8406173998       -0.0155641322       -3.5939788891
 C        -4.1568115951        0.5082098908       -4.1346641791
 C        -4.2909575251        0.7057563811       -5.6643297402
 C        -2.8168719475       -0.1034091170       -1.9858141988
 C        -1.6753882755        0.9954702674       -3.8284055066
 O        -1.6744663104       -1.1732247362       -5.2019017389
 O        -5.0631760171        0.5677774618       -3.3753330124
 C        -5.1350502191       -0.4221877766       -6.2037432700
 C        -4.3083602418       -1.1981093843       -7.3301441166
 C        -4.0364540503       -0.5745143931       -8.7593279118
 C        -2.4876022623       -0.7217645709       -9.0255392057
 C        -1.9116299050       -0.2140525490      -10.3347344531
 O        -3.7839951644       -2.1783016885       -6.9397211597
 O        -1.7642093244       -1.2863022198       -8.1966291357
 C        -4.7371142460       -1.4554934274       -9.9459770952
 C        -4.4556173326        0.8558326583       -8.9244042451
 H         4.5996775218        6.7465464485       -4.4679728685
 H         4.2669190246        5.3534912754       -5.4555214123
 H         3.2858704296        6.8990649082       -5.5629651425
 H         2.3887406648        4.9718258265       -0.7189548404
 H         1.2741698219        6.2116358959       -0.3551267660
 H         3.3888453658        7.1888550435       -2.2636039062
 H         1.7942964086        8.0552101426       -2.0919063581
 H         2.6895056694        8.0564342789       -3.4659378092
 H         1.0140118284        7.0066725013       -5.3501542227
 H        -0.0626155718        5.7663584995       -4.4465937979
 H         0.1473162009        7.5221225090       -3.9408807473
 H        -0.4052294461        4.0179169290       -0.8956606196
 H         0.8471822139        3.0549384369       -0.3087807409
 H        -1.8849262381        3.1939451154        4.5583538518
 H        -1.1094863570        1.6613612714        4.7730046484
 H        -2.6878726358        4.2706834671        3.3646236621
 H        -2.7819463848        5.3682779238        1.7738111620
 H        -1.5347753242        5.4982930256        3.0719172307
 H        -2.2487732192        3.3824954685       -0.1935067653
 H        -1.8495832864        1.8575875422        0.3881512889
 H        -3.1398937069        2.7003183127        0.9915989011
 H        -0.3479785797        4.0961735707        5.8931732241
 H         0.3891443842        4.2482050762        4.4026053206
 H         3.7789374220        0.7549610757        8.8729613933
 H         2.2964114826        0.3545164729        8.3787050181
 H         1.7369503417        4.7913222059        8.0082283286
 H         1.3038646669        5.1148755636        6.3490486628
 H         3.0088821636        4.7680873098        6.7797955343
 H         1.1193705676        2.9183940059        8.9882974140
 H        -0.0920861463        3.0986810664        7.7143468968
 H         0.6321874589        1.4076793732        8.0673924368
 H         4.7180308320        0.0440534289        6.6686066753
 H         4.1893490243       -1.4921392569        7.4789456939
 H         3.0566714507       -3.8236826633        2.3003970966
 H         2.3716570283       -4.1049475751        3.8907348406
 H         4.5645758275       -0.0975196322        3.1590707018
 H         5.8475875524       -1.2732482820        3.6832736631
 H         5.5026234215        0.1280237846        4.6500329450
 H         3.8076819944       -3.3214685768        5.9084220534
 H         4.6395675298       -3.8111502667        4.4504470352
 H         5.4737632907       -2.8824090479        5.5918750936
 H         0.9739661993       -4.2019199080        1.8360633785
 H         0.8763884192       -2.5118770754        1.7311812437
 H         0.0040659614       -5.7425422370        1.6287758486
 H        -1.3429953243       -6.8909652182        1.6993993894
 H         0.8641865582       -5.4972054012        3.5023661097
 H        -0.0788059507       -6.1989628918        4.9343705996
 H         0.7749163325       -4.8069931188        5.2516039135
 H        -2.1490485765       -4.6639895966        5.7916553782
 H        -1.4258867808       -3.0895502981        5.8864307944
 H        -2.6771837480       -3.5645619183        4.6041660629
 H        -2.4692092714       -5.5420683494       -0.1733436563
 H        -1.3166003549       -4.0889810933        0.0550533991
 H        -1.7907135413       -3.8849227149       -5.0104364014
 H        -3.1132082843       -4.7718481104       -4.0356618226
 H         0.8318193503       -4.9270828613       -3.0173996202
 H         0.1916152687       -5.4924404912       -4.5239543073
 H         0.8137404635       -6.6492971382       -3.3599301688
 H        -3.1065808662       -6.4696535090       -2.2094135383
 H        -2.3809165659       -6.6657895459       -3.8119181467
 H        -1.8252968556       -7.5554100230       -2.2504352509
 H        -3.3080636408       -2.4961815711       -2.8812628460
 H        -4.2159091883       -2.6207612497       -4.4457413145
 H        -4.6941642435        1.7015674954       -5.9439321247
 H        -3.2232554180        0.6869339118       -5.9812452711
 H        -3.4031252572        0.7882996571       -1.7156281529
 H        -1.8164961701        0.0017262869       -1.6308179791
 H        -3.1266035637       -1.0412324825       -1.6484077339
 H        -1.4540521355        0.7445023719       -4.9124210899
 H        -2.0062792918        2.0179553720       -3.7840267624
 H        -0.8051777670        0.6967658078       -3.1748145555
 H        -5.4404833402       -1.1647867747       -5.5006635476
 H        -6.0411232515        0.0498710241       -6.7869082674
 H        -1.0557939509        0.3113946390      -10.0541417139
 H        -1.5890550176       -1.0840406287      -11.0085387752
 H        -2.5798585863        0.4107659517      -11.0410067700
 H        -5.8224957335       -1.2456461829       -9.9483649113
 H        -4.4803551359       -2.4076817844       -9.7525741200
 H        -4.4180578507       -1.1203383317      -10.9740318150
 H        -4.7321991424        1.1528122301       -9.9744791047
 H        -5.3173259808        0.9739827746       -8.2921071490
 H        -3.6569279411        1.4664048675       -8.6131864433
 Na        0.7526459766       -0.0450441057        3.5672434255
