155

 C         3.4982190314        5.1991316427       -5.4009437145
 C         2.2906104063        4.9079027696       -4.5519620704
 C         1.5186683908        6.1683748733       -4.0771490372
 C         0.5388132671        5.7871842679       -2.8150415840
 C         0.8619885128        4.5872900542       -1.8030622848
 C         2.6617104867        7.0635376492       -3.4768883474
 C         0.9533904150        6.8884816000       -5.2805252555
 O         1.9070730714        3.7870336706       -4.4022121548
 O        -0.3281858383        6.5348495505       -2.5787701632
 C        -0.2450092004        4.4032646990       -0.7269599119
 C         0.0216475833        3.3986574826        0.5201351228
 C        -0.9561892621        3.4109365635        1.8041399922
 C        -0.1409407947        2.5785581995        2.8318236285
 C         0.1078865739        3.5341244428        4.1753636023
 O         0.6981823542        2.4188960921        0.2864263814
 O        -0.0336935311        1.4218581374        2.9208910778
 C        -1.4563062960        4.9201462683        2.1231417127
 C        -2.2432882877        2.6760287244        1.4782442163
 C         1.6571594618        3.8052487111        4.3873111200
 C         2.3218864787        2.6970218458        5.2859784774
 C         3.0953162170        3.3036754739        6.6371957186
 C         4.0313752177        2.0206302843        6.7333586008
 C         3.7296549011        0.8444562935        7.6022393785
 C         3.8517131657        4.5438659824        6.4229717716
 C         2.0989429243        3.2503720036        7.8364199868
 O         2.2362714311        1.5004027056        5.1276689367
 O         5.0818545321        2.0055298784        6.0610469233
 C         4.5215530679       -0.4687796119        7.0823200598
 C         3.8153378713       -0.9755567046        5.8103388378
 C         4.5087217493       -1.9832047659        4.8384638412
 C         3.2964617501       -2.5381956412        3.9301345883
 C         2.6324292527       -3.9367889891        4.3405605205
 O         2.5870614503       -0.8493431110        5.6793456310
 O         2.9138656078       -2.0146410765        2.9418346466
 C         5.4308550356       -1.1295894423        3.8446278145
 C         5.4175437348       -3.1414544742        5.6230452567
 C         1.4304430850       -4.3342413620        3.3101126612
 C         0.0456483915       -3.7385743173        3.5818375740
 C        -1.2520906265       -4.4485233325        3.4087322132
 C        -1.8920259923       -4.0085531649        2.0322449475
 C        -1.6026410865       -5.0466960053        0.9272695728
 C        -1.1705457031       -6.0204186210        3.5434934131
 C        -2.2556767632       -3.8853491615        4.5961008313
 O        -0.0998812572       -2.5647851503        3.8453688366
 O        -2.3911725405       -2.9425234130        2.0668391351
 C        -0.3169509696       -4.8154177145        0.1922268537
 C        -0.0653941305       -5.4234356620       -1.1185371752
 C        -1.0592224459       -5.2924587029       -2.4377264650
 C        -2.0456313216       -3.9873107397       -2.3789112185
 C        -2.9993134972       -3.8969313010       -3.4973509454
 O         0.8760105734       -6.2710621176       -1.2435585251
 O        -1.9729541189       -3.3001292191       -1.3443823774
 C        -0.0630614194       -5.1900640325       -3.6399365967
 C        -1.8247175692       -6.5441976280       -2.6678082030
 C        -3.5442059554       -2.4605986363       -3.7844171654
 C        -2.4345276646       -1.4023537345       -3.9191222040
 C        -2.6444585520        0.1914180232       -3.1239361633
 C        -3.8347598429        1.1324526883       -3.8528963868
 C        -4.2115988896        0.6140240722       -5.2977760577
 C        -2.7120992500        0.1254910580       -1.6378263054
 C        -1.4297775300        1.0438716977       -3.5927024843
 O        -1.3237136065       -1.6927066080       -4.2611555896
 O        -4.0984639254        2.1794634985       -3.3650847152
 C        -5.7270795007        0.8347374284       -5.5526916442
 C        -6.1710936813       -0.2262750886       -6.6689517679
 C        -5.7834389443       -0.2418223273       -8.2334398274
 C        -4.5246840065       -1.0831049403       -8.5375898915
 C        -3.9611431649       -1.2978209607       -9.8889459517
 O        -7.0926389311       -0.9428199625       -6.4184790623
 O        -3.7969159533       -1.4141991027       -7.6181519101
 C        -6.9842168198       -0.9872628078       -9.1253002923
 C        -5.4977633827        1.1504390629       -8.6458656045
 H         4.4450266190        5.4814479946       -4.8180435409
 H         3.6560092472        4.4449939650       -6.1468995882
 H         3.3067660075        6.0201204554       -6.0203420665
 H         1.2430546463        3.6936442196       -2.3300309303
 H         1.8067765521        4.9949641604       -1.4247601532
 H         3.2434924517        6.5007201745       -2.7523314316
 H         2.3284047972        8.0130427340       -3.0146584861
 H         3.1847071810        7.4597953147       -4.3421051407
 H         0.1612786718        7.5684513872       -4.9655274572
 H         1.6822683072        7.5478814356       -5.8060177254
 H         0.6079646018        6.2136111614       -6.0373352457
 H        -0.6501992051        5.3720575056       -0.3903202489
 H        -0.9853675750        4.0412198317       -1.5110480995
 H        -0.3987668901        4.4513826005        3.9663533912
 H        -0.2348498937        3.0999362571        5.0866602377
 H        -2.2299833175        4.8942260284        2.8788188802
 H        -1.8533556134        5.6650637103        1.3780543903
 H        -0.6685279899        5.5898755950        2.5192591299
 H        -2.6616775585        2.9490392665        0.4977788785
 H        -2.2277782262        1.6190053459        1.2384775714
 H        -3.0570115548        2.8052535060        2.1098686595
 H         1.7652321536        4.7354072061        4.9003271385
 H         2.2927161194        3.6759045321        3.4077390954
 H         3.8775639543        0.9034818494        8.6566022516
 H         2.7286732961        0.5750727481        7.4043523794
 H         4.0620675444        5.0717360761        7.3302810791
 H         3.4858789843        5.2840952415        5.7600547389
 H         4.8121755149        4.3099793229        6.0002056455
 H         2.6720396052        3.1861663669        8.7485486972
 H         1.5846844750        4.2007566228        7.8360221352
 H         1.4454237342        2.4330385022        7.7854332526
 H         5.5639459136       -0.0595257300        7.0966762906
 H         4.3422025719       -1.1427906490        7.9790126340
 H         3.3731928341       -4.7582867566        4.4165510238
 H         2.1817792716       -3.6290263850        5.2991012370
 H         5.1170661297       -0.0941408680        3.8044936884
 H         5.5622545053       -1.7190764121        2.8648931142
 H         6.4087887323       -0.9226349895        4.1798052463
 H         4.8022064203       -3.8343178755        6.1569858198
 H         5.8997001526       -3.6645308259        4.7762749426
 H         6.1003135522       -2.6616135233        6.2370018190
 H         1.3757311724       -5.4709235280        3.3009197210
 H         1.7123774413       -3.8557522507        2.3666271441
 H        -1.3767275067       -6.0692535556        1.2870863764
 H        -2.5097543781       -5.0143194149        0.3744636707
 H        -0.7221989723       -6.4719813744        2.7303119789
 H        -2.2118149438       -6.3862296594        3.5723222141
 H        -0.7330301285       -6.1579595005        4.5221722890
 H        -2.7242444366       -4.8051015198        5.0444999424
 H        -1.6329808047       -3.1934071634        5.3437223704
 H        -2.9076891394       -3.2478891880        4.0276155212
 H        -0.2779063826       -3.7215528635        0.2760382525
 H         0.5936960738       -5.0077583910        0.8299156498
 H        -2.4044146865       -4.0531944971       -4.4584539534
 H        -3.6148391317       -4.7335977526       -3.5778786742
 H         0.7924160098       -4.5655007553       -3.5691722462
 H        -0.7226692361       -4.9846014678       -4.4760190176
 H         0.2597438803       -6.2802289627       -3.6920981929
 H        -2.7301251092       -6.7257891457       -2.0286180289
 H        -2.1762505173       -6.4341118223       -3.7719542050
 H        -1.1237954411       -7.3022152771       -2.6581950145
 H        -4.3311304628       -2.1721015981       -3.1215194154
 H        -4.1458548809       -2.3523949047       -4.8008152219
 H        -3.6463056255        1.1932767176       -6.0624933748
 H        -4.1236716407       -0.4920246228       -5.5227424537
 H        -3.2282577256       -0.7782398634       -1.1758956636
 H        -3.3694597100        0.9403445196       -1.3221760965
 H        -1.7559039382        0.2488967228       -1.2335410533
 H        -0.6165503467        0.8914910532       -2.9012241643
 H        -1.0563223391        0.6405227644       -4.4702746424
 H        -1.5480474845        2.1556660213       -3.5631259414
 H        -6.1776556142        0.5228067992       -4.6563011784
 H        -5.9628505964        1.9327008445       -5.7150688208
 H        -4.6559678388       -0.7855656323      -10.5816748174
 H        -2.9720920829       -0.8315503721       -9.9342053988
 H        -4.0479919300       -2.3458399642      -10.3304718563
 H        -7.8892694592       -0.3381571422       -9.0932728890
 H        -7.1672978286       -1.9917080743       -8.8496236743
 H        -6.8506955704       -1.0343232183      -10.2216044230
 H        -5.0097424070        1.2359130331       -9.6419549802
 H        -6.3138986682        1.8554624792       -8.7892402329
 H        -4.9385227070        1.7095454519       -7.9514404860
 Na        1.0988816549       -0.5594776063        3.8526936885
