155

 C         3.2748779725        4.9075354704       -5.5044134626
 C         2.1589168612        4.6709396504       -4.5577860458
 C         1.5611198027        6.0460593401       -4.0576890183
 C         0.6453241508        5.7195698769       -2.7287062608
 C         0.4389566634        4.4539224946       -1.9497910788
 C         2.8003277380        6.9986341334       -3.7270503029
 C         0.6635873367        6.5911315604       -5.2314725230
 O         1.8838474358        3.5615422595       -4.1073060046
 O         0.1043423706        6.7167450794       -2.2514001481
 C        -0.0102197148        4.7093285973       -0.5863166685
 C        -0.2159198831        3.3004834752        0.0857188586
 C        -0.9110424679        3.3074048314        1.5544263666
 C         0.0391422520        2.4263091363        2.6258878844
 C         0.1205924880        2.8640015290        4.1211159119
 O         0.1624874955        2.2813061372       -0.3649505201
 O         0.3931241737        1.3787877677        2.2385693057
 C        -1.3915821151        4.6906175862        2.0518787137
 C        -2.1235677370        2.3678862607        1.3102805418
 C         1.5222951388        3.6293066561        4.5637691133
 C         2.4738475587        2.6047328861        5.3511802100
 C         3.5755061203        3.2354232175        6.1836052273
 C         4.6806706775        2.1960158258        6.7344024116
 C         4.3005885403        0.8906945371        7.4350605820
 C         4.2195620469        4.5354852610        5.6507669949
 C         2.7668492898        3.6621522194        7.4782501148
 O         2.2473552007        1.3864276792        5.4674179489
 O         5.8472163392        2.4830769957        6.6812597448
 C         4.7919172538       -0.4682084799        6.9659733260
 C         3.9218075767       -1.3225527918        6.0372053736
 C         4.6056377545       -2.1317665581        4.9710603118
 C         3.3297641862       -2.7773906955        4.0485027202
 C         2.5047980795       -4.0187389671        4.6876205880
 O         2.6929918087       -1.3154419705        6.1642555439
 O         3.0310122370       -2.2970789141        2.9836118471
 C         5.4675745946       -1.2491375723        3.9843156896
 C         5.2963293889       -3.3323173931        5.5878269694
 C         1.4323047578       -4.5189436907        3.7594325144
 C         0.1338114396       -3.7257490372        3.8991533827
 C        -1.2372777570       -4.3594690570        3.6058390371
 C        -1.6461108383       -3.8189748862        2.1491075655
 C        -1.8145196679       -4.7770310256        0.9544596431
 C        -1.1358004991       -5.8379022911        3.6128942335
 C        -2.2332405929       -3.7487263830        4.5524545489
 O         0.1814369985       -2.5170174291        4.2517619600
 O        -1.8367114559       -2.5928689432        1.9873183795
 C        -0.6010618363       -4.8199493947        0.2454242824
 C        -0.3726322914       -5.5021999255       -1.2336867188
 C        -1.1801714734       -5.1969110894       -2.7145785872
 C        -1.9861046627       -3.9340208110       -2.5666433552
 C        -3.0534981863       -3.6653102186       -3.4219689531
 O         0.5506484798       -6.2866456711       -1.3497574354
 O        -1.7512528798       -3.2424887909       -1.4980772983
 C        -0.2158163206       -5.3155845157       -3.9064684803
 C        -2.0721666170       -6.5406323163       -2.9711375846
 C        -3.5624788920       -2.1807884505       -3.3877221083
 C        -2.4852932116       -1.1927500731       -3.8758265988
 C        -2.5678585627        0.4112056574       -3.6461100601
 C        -3.8443008860        1.0377300484       -4.0767288579
 C        -4.2492393364        0.6921016931       -5.4588458895
 C        -2.4535691646        0.5196728908       -2.0421156337
 C        -1.2098411241        0.9728830327       -4.0146907929
 O        -1.4578276338       -1.6093165708       -4.4574495564
 O        -4.5010563900        1.6468553820       -3.2661900880
 C        -5.7640673807        0.9197583822       -5.5822334363
 C        -6.5970539249        0.0931276438       -6.4988291081
 C        -6.2720445011        0.0390865946       -8.0754098881
 C        -5.1471689372       -1.0622265346       -8.1749516391
 C        -4.6048201946       -1.5010269489       -9.5086516842
 O        -7.6652526700       -0.3193462076       -6.0463104849
 O        -4.7836630194       -1.5599262732       -7.1509844688
 C        -7.5694663542       -0.5572847100       -8.7852475985
 C        -5.6782454879        1.3245841793       -8.7673221848
 H         4.2576792219        5.1851928902       -4.9705250317
 H         3.5798465509        4.0019755703       -6.0573038422
 H         3.0689353220        5.7858689771       -6.1136266663
 H        -0.3557173692        3.8646993215       -2.4649391441
 H         1.4281906846        3.8386843381       -1.9201573996
 H         3.4768255915        6.4805410084       -3.1633823720
 H         2.3708639763        7.9212867128       -3.1715148004
 H         3.4830707820        7.2565838453       -4.5283076951
 H        -0.0745701329        7.4020472400       -4.9840958490
 H         1.1956209391        6.8204517277       -6.1683597790
 H        -0.0183604749        5.7749778725       -5.5215212369
 H         0.7424129452        5.2740934998       -0.0064173475
 H        -1.1092272992        5.0706060378       -0.5069652092
 H        -0.5883622820        3.6883081943        4.2223186275
 H        -0.2147267275        2.0237196019        4.7084543208
 H        -1.9683346900        4.5282530818        2.8957573582
 H        -1.9159490243        5.2872886978        1.3080305023
 H        -0.6801000501        5.3121667069        2.5403594011
 H        -2.6541644014        2.8023428073        0.4207167514
 H        -2.0221023179        1.3318943598        1.0317726228
 H        -2.9299919488        2.2547158171        1.9836800845
 H         1.2040594471        4.3940394113        5.1390400672
 H         1.9020967870        3.9522960986        3.4750191906
 H         4.6307827696        1.1580938398        8.4058054102
 H         3.2821167143        0.5543577397        7.3738089866
 H         4.6195989948        5.2319916519        6.2859347684
 H         3.6272813961        5.1540709815        4.9456997017
 H         5.1107147048        4.2452104608        5.0528964056
 H         3.4175725048        4.1075985386        8.2512851495
 H         1.9798575284        4.2969866429        7.1301430119
 H         2.3617886563        2.7825616734        7.8795390014
 H         5.7754451713       -0.2352455907        6.5127637793
 H         4.9755633807       -1.0834207819        7.8892890441
 H         3.4220289492       -4.7598016570        4.8575535343
 H         2.0980150149       -3.6893855336        5.5912418217
 H         5.0134692061       -1.4240994015        2.9417977126
 H         6.5338733157       -1.3858187286        4.1403962572
 H         5.3937952934       -0.2320599222        4.1725772222
 H         4.5641931261       -3.7617532444        6.2973635242
 H         5.3737168959       -4.0358105832        4.7363466777
 H         6.2814614443       -3.1877087535        5.8011233905
 H         1.2522827389       -5.6128001748        4.0361264126
 H         1.7572189196       -4.4264194847        2.7101205150
 H        -2.1001289717       -5.7156800381        1.3623755366
 H        -2.5946957790       -4.4876627524        0.2427347678
 H        -0.7482299536       -6.1636280482        2.6993706233
 H        -2.0858586080       -6.3642544088        3.7863405951
 H        -0.4184180119       -6.1004923262        4.3574435070
 H        -1.7611559027       -3.8797655341        5.5544008072
 H        -2.0905052190       -2.6655708870        4.5099155615
 H        -3.2075892753       -4.2494188491        4.3951190531
 H        -0.1853245690       -3.8061125342        0.1287081972
 H         0.2429563738       -5.2746816414        0.8247171250
 H        -3.0109633126       -4.1806648273       -4.3897414246
 H        -3.8469156918       -4.2593255728       -3.0912943998
 H        -0.1176154026       -4.2828022513       -4.2154381425
 H        -0.7323302788       -5.8765138088       -4.6977229364
 H         0.7684450012       -5.6394106781       -3.4129239441
 H        -2.6542436256       -6.5852305376       -2.1100195749
 H        -2.5802781172       -6.5493986950       -3.9046793287
 H        -1.3829133217       -7.3571337030       -2.9161350982
 H        -4.0183290912       -1.9736888546       -2.4189898006
 H        -4.5016561031       -2.0707443193       -4.0007351557
 H        -3.6983554182        1.3802753995       -6.0380193825
 H        -3.9252003254       -0.3519584274       -5.6600185825
 H        -3.4572379480        0.8938406644       -1.6423359919
 H        -1.7983928451        1.3121342885       -1.6606760984
 H        -2.0207017176       -0.3412220742       -1.5692093390
 H        -1.1225953713        1.1470720415       -5.0700579052
 H        -1.1391476702        1.9373797521       -3.5500613704
 H        -0.2843716917        0.3692509645       -3.7635960365
 H        -6.0705988540        0.9953295317       -4.5568543737
 H        -5.8013606250        1.9743565670       -5.7866027444
 H        -5.5017215654       -1.5400553278      -10.2647857210
 H        -3.8438060557       -0.7991912843       -9.7147082085
 H        -4.1264781346       -2.4866537108       -9.4949112184
 H        -8.1329121193        0.0674379714       -9.4594613642
 H        -8.2721080193       -0.8802229128       -7.9828000935
 H        -7.3577214363       -1.4677203179       -9.3419072979
 H        -5.7952786532        1.2970855620       -9.9090014283
 H        -6.1142991101        2.3088359765       -8.5893051646
 H        -4.6161330429        1.5316231289       -8.7969857943
 Na        1.6451437705       -0.1994783679        3.9421689365
