155

 C         3.0935381482        4.2990265794       -5.6247796267
 C         1.9618009438        4.3598022736       -4.6522892242
 C         1.4108033333        5.7395877893       -3.8569065726
 C         1.1007902028        5.6374217126       -2.3694671203
 C         0.9762881093        4.2467503940       -1.7431024294
 C         2.4100186477        6.8774410755       -3.9351196134
 C         0.2175640553        6.1276136280       -4.7050475504
 O         1.4197747252        3.3666869676       -4.2640262007
 O         0.9787261058        6.5656435272       -1.6364373552
 C         0.2904382408        4.2671691378       -0.3793771345
 C         0.0117269975        2.7846096151        0.1565448313
 C        -0.4623517622        2.8370365073        1.6905578879
 C         0.4454637089        1.9740410723        2.5834678067
 C         0.3559222495        2.1614837172        4.1508665852
 O         0.0192691254        1.7349122214       -0.3705905811
 O         0.9957304235        0.9671432218        2.1672219120
 C        -0.9788607493        4.1915276200        2.3355201623
 C        -1.7237458594        1.8905728077        1.7328861822
 C         1.3461125701        2.9551201418        5.0151461014
 C         2.7667209168        2.3540413804        5.0318346716
 C         3.9025657561        3.2142743084        5.6770614873
 C         5.0245128885        2.1619618068        6.3407022768
 C         4.3726890797        1.1897316699        7.3230651051
 C         4.6377214592        4.0437667239        4.5636680087
 C         3.2776647486        4.0032712483        6.8098466576
 O         2.9796308065        1.2311263062        4.6191825075
 O         6.2123157304        2.2709954882        6.1515157841
 C         4.7412610000       -0.2848936465        7.0825439098
 C         3.9786973249       -1.0770919588        6.0434667737
 C         4.6554315640       -2.0562693206        5.0204779316
 C         3.5392189962       -2.6221520045        4.1138650751
 C         2.6562161367       -3.7717669432        4.7323128909
 O         2.7467585962       -1.0523098984        6.1252821524
 O         3.3767575890       -2.3199235153        2.9567750890
 C         5.6719436624       -1.2661922058        4.1175606379
 C         5.4847998638       -3.0645016266        5.8262737585
 C         1.5238309510       -4.2969825356        3.9573797253
 C         0.2308164285       -3.4173536128        4.0805763804
 C        -1.1392812475       -4.0473987143        3.5568635657
 C        -1.3604983335       -3.4974219857        1.9746549919
 C        -1.5422543874       -4.4424065462        0.7773308398
 C        -1.0792134538       -5.5411716792        3.7864921585
 C        -2.2716465967       -3.3498930364        4.3269730826
 O         0.2551300487       -2.2910277991        4.5216818687
 O        -1.2881785418       -2.2896699026        1.8034733212
 C        -0.3055127600       -4.3517137330       -0.2059144601
 C        -0.6221215485       -5.4751687461       -1.2193462642
 C        -1.3785644808       -5.0677171110       -2.4541594477
 C        -1.9224951357       -3.4959145387       -2.2648879352
 C        -3.4637996146       -3.2157006865       -2.9011762561
 O        -0.2574802687       -6.6717099145       -0.9758174646
 O        -1.4257969568       -2.5103390697       -1.7875526892
 C        -0.4519171703       -5.2670118798       -3.7418551327
 C        -2.7074971439       -5.9255181463       -2.5135958602
 C        -3.7007684775       -1.8161601741       -3.5808324407
 C        -2.6163402961       -1.0791217127       -4.3088700351
 C        -2.4313565262        0.5245125256       -3.9661170593
 C        -3.8950137195        1.0145812750       -4.0328613324
 C        -4.4002703760        0.9427260287       -5.4176013784
 C        -1.7475550166        0.8211693552       -2.5301143353
 C        -1.4341686348        1.1155912560       -5.0495323425
 O        -1.8669630643       -1.5521895099       -5.1210892102
 O        -4.5764538994        1.1433687803       -3.0484668424
 C        -5.7849501848        1.5115622264       -5.6184983775
 C        -6.9555524116        0.6025930318       -6.2165482852
 C        -6.8446481623        0.1909864589       -7.7464719959
 C        -6.3164873458       -1.2975918595       -7.8316198152
 C        -5.2602184819       -1.6931556626       -8.8434995421
 O        -7.8579924477        0.1272737416       -5.5761650519
 O        -6.9028231400       -2.1053676119       -7.0881314078
 C        -8.2716519253        0.2056656472       -8.4621034323
 C        -5.9574026992        1.2273160340       -8.5433878582
 H         4.0545242188        4.6330953707       -5.1452409516
 H         3.3684723731        3.3195107709       -5.8586215486
 H         2.9068630517        4.9945389512       -6.3550636109
 H         0.3326298013        3.8069833272       -2.4167089618
 H         1.9309387692        3.8650331297       -1.7079102485
 H         3.2109963885        6.5670017278       -3.2601569699
 H         1.9995609067        7.7885042015       -3.5009374401
 H         2.7741185487        6.9654714603       -4.9131889798
 H         0.2586238534        7.2065652792       -4.6909427237
 H         0.2531192334        5.9865921304       -5.8387659980
 H        -0.7876211093        5.8547488495       -4.3878889898
 H         0.9477353088        4.9263263377        0.2315666380
 H        -0.7224864128        4.6315993449       -0.4076551128
 H        -0.6487355273        2.5017430525        4.4788853932
 H         0.4162696806        1.1824111302        4.6249815934
 H        -1.7571027822        3.9573349591        3.1089386501
 H        -1.6108841535        4.7269058548        1.5825817166
 H        -0.1577275553        4.8745716381        2.6601360256
 H        -2.7220247433        2.0781258899        1.3854851924
 H        -1.4826485796        0.9718040211        1.2042847029
 H        -1.8792491643        1.4308380624        2.7058652284
 H         0.9913178203        2.7426206530        6.0826297955
 H         1.2014957886        4.0093865905        4.9667674683
 H         4.8371519253        1.5214667196        8.2727727613
 H         3.3546862616        1.2522086360        7.2432245087
 H         5.0332157479        3.4646616734        3.7202712782
 H         5.4135431339        4.6348434428        4.9531273461
 H         3.8949038418        4.6264280504        4.0509772075
 H         4.0890138683        4.2862341263        7.3916341593
 H         2.7022519342        4.8812375901        6.5359312521
 H         2.6866798250        3.3008731404        7.3526896667
 H         5.8575534577       -0.5171646115        7.0171650505
 H         4.4986659832       -0.8308184418        8.0650121886
 H         3.2512728795       -4.5629526453        4.9368955499
 H         2.3117985953       -3.4073153014        5.7589959346
 H         6.6207079061       -1.6672628652        4.3217540611
 H         5.9169110384       -0.1653080147        4.3743631583
 H         5.3032203711       -1.2501895242        3.0829344983
 H         4.8274095025       -3.5116030749        6.5369462371
 H         5.7624676806       -3.8371780859        5.1178356823
 H         6.2601378075       -2.6131448299        6.3684484610
 H         1.4021580522       -5.2221698504        4.4762090840
 H         1.6181140715       -4.6720950768        2.9129311386
 H        -1.9890895110       -5.4237028932        1.2472394812
 H        -2.4637918159       -4.1509102528        0.3137174654
 H        -0.1432326487       -5.9234187826        3.4440419036
 H        -1.8999674855       -6.1472794510        3.5388202787
 H        -1.0571259844       -5.6810662770        4.8827636152
 H        -1.6793388661       -2.7891219110        5.1126459399
 H        -2.9918236440       -2.7123408535        3.6386522807
 H        -2.8503525793       -4.0689363994        4.8943524799
 H        -0.2289672351       -3.2530314471       -0.4851287769
 H         0.6619098078       -4.6514701875        0.3131580805
 H        -3.7260776891       -3.9429094083       -3.6601016296
 H        -4.0951521028       -3.4358499160       -1.9968131837
 H         0.4732334969       -5.1333239447       -3.2539391084
 H        -0.5595729338       -4.6331762240       -4.6166715079
 H        -0.7591937536       -6.2731257205       -4.0330646950
 H        -3.2968618948       -5.6702274964       -1.6009044094
 H        -3.3017181862       -5.7986105980       -3.4636680634
 H        -2.3340141201       -6.8623950700       -2.3747897324
 H        -3.8313233718       -1.1840788719       -2.7694818372
 H        -4.6836483761       -1.6885839677       -4.1990020089
 H        -3.6227832234        1.4374285407       -6.1251376980
 H        -4.4566692983       -0.0539644976       -5.8903060930
 H        -1.9303956935        0.1043042482       -1.7410372086
 H        -1.9693137815        1.8789202243       -2.2386101184
 H        -0.6888848429        0.8031161556       -2.5056381834
 H        -0.4161387071        0.7837945468       -4.7825398375
 H        -1.6454301766        0.8088864501       -6.0399451065
 H        -1.3466634403        2.1982088282       -5.0863728677
 H        -6.1541327515        1.7414219276       -4.6724617833
 H        -5.7245579007        2.5200137438       -6.2278569921
 H        -5.5451732983       -1.0442398781       -9.6794942209
 H        -4.2523592090       -1.3441868417       -8.5195746476
 H        -5.1454565940       -2.8034221515       -9.0433553148
 H        -8.5807220370        1.2714462583       -8.6856988873
 H        -9.0529542349       -0.0759213982       -7.8796861229
 H        -8.2632902319       -0.4032683019       -9.3742904756
 H        -6.1361054018        1.0800751769       -9.6040711018
 H        -6.0079084590        2.3191998229       -8.4723538413
 H        -4.9027915964        1.1128312596       -8.5844187904
 Na        1.6371304842       -0.5367145659        3.8459979436
