155

 C         2.4466765810        3.3739393960       -5.3888230352
 C         1.2266754527        3.9209028486       -4.6805738512
 C         1.2197897428        5.0239168143       -3.5731573320
 C         2.0801061289        4.5264831214       -2.2548716779
 C         1.5294687670        3.2934879874       -1.4826677336
 C         1.8381899049        6.3286940514       -4.1923154473
 C        -0.2306548110        5.3943371686       -3.1801826767
 O         0.1145140987        3.6800674515       -5.1332129953
 O         2.8518010105        5.2419613465       -1.6730874387
 C         0.9983746204        3.6480172970        0.0300649695
 C         0.2724058992        2.4192070490        0.6751307345
 C        -0.4180859703        2.5418137428        2.1230156088
 C         0.5337007656        1.6383900769        3.0905033878
 C         0.8031479912        1.7155089017        4.6724035314
 O         0.1873945879        1.3670096920        0.1025116805
 O         0.9917586462        0.6353366893        2.4708825621
 C        -0.6747384519        3.9284664724        2.5709597375
 C        -1.8231324998        1.7734553347        2.1547556600
 C         1.8664014169        2.8676403024        4.7633180643
 C         3.2571353931        2.4515983635        4.2108131742
 C         4.6265403688        3.2188639138        4.5749395499
 C         5.5452855246        2.1187834915        5.1185392667
 C         5.1801199652        1.5688287021        6.5505161446
 C         5.4222523393        3.6236184170        3.2581108583
 C         4.6706225493        4.4721055392        5.4679503932
 O         3.3707844306        1.6177053997        3.4001492753
 O         6.3754575225        1.5068387071        4.5620010565
 C         5.6540229692        0.0628328516        6.8369646637
 C         4.8474669347       -0.9415613774        5.8656811769
 C         5.1410541202       -2.5933656213        5.7095774123
 C         4.0425363471       -2.9813114639        4.7198125179
 C         2.9990961057       -3.9369859091        5.1679644113
 O         3.8314598149       -0.4672105539        5.3451545645
 O         4.0530670419       -2.5860963637        3.5343286820
 C         6.6327955385       -2.6453001916        5.1942989031
 C         5.0442820090       -3.3068206880        7.0895636215
 C         2.0542734754       -4.4293291200        4.0201529526
 C         0.9012066219       -3.4263128047        3.8436714133
 C        -0.6235293224       -3.6727436216        3.5467478045
 C        -0.9984293320       -2.8997766961        2.2307973535
 C        -1.6493571810       -3.5957819547        1.1192902065
 C        -1.0040425908       -5.1514598603        3.2839350285
 C        -1.5102638315       -3.0879269133        4.7550155062
 O         1.1166919936       -2.2632023822        4.1401577806
 O        -0.8305060438       -1.6596611871        2.2271034371
 C        -0.5392519312       -4.2857799860        0.0855558897
 C        -1.1728905361       -5.4472294360       -0.7586100436
 C        -1.9101502241       -4.9548976809       -2.0006359619
 C        -2.0449007986       -3.4398471135       -2.1819687979
 C        -3.2771807067       -2.7387566271       -2.7293264126
 O        -1.0561926187       -6.6679437118       -0.5361687608
 O        -1.0754775002       -2.8401585574       -2.3125000242
 C        -0.9299218572       -5.2556652981       -3.2528513411
 C        -3.1963752976       -5.7839156650       -2.1482081093
 C        -3.0713954221       -1.1454980220       -2.9815930561
 C        -2.8614594413       -0.9709335877       -4.4943657826
 C        -2.4866115085        0.5113943975       -5.1353158059
 C        -3.6691232798        1.5793633513       -5.2017645075
 C        -5.1823885232        1.0368032837       -5.4205420483
 C        -1.4386584183        1.3272483137       -4.2259266848
 C        -1.9933155702        0.3911339242       -6.7063970951
 O        -3.1873733101       -1.8840582851       -5.2784920087
 O        -3.4226509187        2.7426825435       -5.1577184320
 C        -6.2620074035        2.1369907093       -5.8233209501
 C        -7.6245070272        1.2711811124       -5.7033481806
 C        -8.5754982363        0.9266521954       -6.8506323886
 C        -8.9555247220       -0.6943335914       -6.8272130796
 C        -7.9501077605       -1.6659556225       -6.2359092217
 O        -7.9565843290        0.8946019332       -4.6202720504
 O        -9.9141735003       -1.0214618639       -7.4789637459
 C        -9.8653968530        1.7027859307       -6.7742565317
 C        -7.9191891215        1.0077523534       -8.2580875049
 H         2.7205954006        2.3400566623       -4.9686248540
 H         2.2639225370        3.2755294509       -6.4064209323
 H         3.3411830151        3.8418317120       -5.2056669604
 H         0.7493140539        2.6973123264       -1.9296461174
 H         2.3244719011        2.5933513566       -1.4161205513
 H         2.7916149786        6.0079043789       -4.4586392858
 H         1.8452842801        7.1566322911       -3.4334735320
 H         1.4756622913        6.5148263025       -5.1511783579
 H        -0.3757258392        5.1483642880       -2.1377752316
 H        -0.4879539858        6.4589425953       -3.3774449608
 H        -1.0973603629        4.7877307587       -3.4612653333
 H         1.9046367346        3.9537508880        0.4826874159
 H         0.3298257728        4.4669533778       -0.0463005836
 H        -0.0751792642        2.0921330649        5.2152038445
 H         1.0685678155        0.7905149151        5.1500105509
 H        -1.1511104459        3.8859687611        3.5136044706
 H        -1.4264672632        4.2302574093        1.9193509753
 H         0.3127376174        4.2865686055        2.6544157755
 H        -2.3341790731        1.5378362714        1.2367897248
 H        -1.6422692489        0.7989043902        2.6480255068
 H        -2.6805792490        2.0886303878        2.7844520026
 H         2.0615481844        3.2234629581        5.8021006191
 H         1.4973173267        3.6400204506        4.1669321680
 H         5.6801986296        2.1683227686        7.2684902322
 H         4.1470979667        1.8254734570        6.7164188270
 H         5.5859381465        2.7734507688        2.6323398696
 H         6.3892913947        4.1021569735        3.4715677662
 H         4.6776527407        4.2858915396        2.7471950305
 H         5.5438647578        4.5068959265        6.1006576592
 H         4.7857763558        5.4653777249        4.9434922214
 H         3.7878945499        4.5834282279        6.1723884475
 H         6.7460499447       -0.2330418265        6.6528352735
 H         5.3184138029       -0.1093952619        7.8866648780
 H         3.5552950283       -4.6678138255        5.6450527601
 H         2.3156261633       -3.5174971819        6.0481251408
 H         6.6993995716       -3.6825890626        4.9408053081
 H         7.3349858334       -2.2955008703        6.0412416717
 H         6.8054608888       -1.9210484162        4.4215370733
 H         4.0046319781       -3.2344479385        7.5132856895
 H         5.3689279500       -4.4233529927        7.0118151513
 H         5.6636830654       -2.9289418184        7.8529146510
 H         1.6660970389       -5.4654543566        4.1590619887
 H         2.7034512009       -4.4388530070        3.1348135619
 H        -2.2071669881       -4.2385055755        1.8106982561
 H        -2.2587114911       -2.8517568040        0.7269283682
 H        -0.4040127496       -5.5582248150        2.4859197171
 H        -2.0542926447       -5.2738398797        3.1829269242
 H        -0.7248201329       -5.8467419275        4.0598999466
 H        -2.1108402966       -3.8267373066        5.3060350333
 H        -0.9095255594       -2.5104074122        5.5390054126
 H        -2.1548473667       -2.2107334927        4.4130598386
 H        -0.1462352841       -3.4258299061       -0.5176397430
 H         0.2954892100       -4.7889310358        0.7123000953
 H        -3.5958092204       -3.0924919723       -3.7258818764
 H        -4.1611587802       -2.6492074536       -2.0961416889
 H         0.0295640299       -4.9113205583       -2.9149598737
 H        -1.1978575450       -4.6406945815       -4.1667529972
 H        -0.9246295023       -6.3941797457       -3.2835334056
 H        -3.9948508360       -5.2457365622       -1.7818718827
 H        -3.3766905010       -6.3160213952       -3.0340831268
 H        -3.1472321116       -6.5448411426       -1.4048674324
 H        -2.1345112267       -0.8750043524       -2.5808782344
 H        -3.8202032525       -0.4803278577       -2.5564903941
 H        -5.1933292092        0.3050405403       -6.2720236985
 H        -5.6361655489        0.6404081011       -4.5164293337
 H        -1.8885009034        2.0664748651       -3.5705362136
 H        -0.6050112268        1.8086692710       -4.8554632131
 H        -0.7051857437        0.7351650676       -3.7684901802
 H        -2.1568993161        1.3505734541       -7.2526694968
 H        -0.9127862221        0.1861247559       -6.5566923952
 H        -2.6417313927       -0.3847254172       -7.2137123269
 H        -6.2566228133        3.1044747886       -5.2443338479
 H        -6.0245709125        2.4996169737       -6.9074941501
 H        -6.9277294343       -1.1477529101       -6.1440221427
 H        -8.4915304589       -1.9268638296       -5.3335695862
 H        -7.8930003299       -2.6754367385       -6.6813860760
 H        -9.6133898414        2.6671968794       -7.2191878295
 H       -10.2627655639        1.8015110261       -5.8043940221
 H       -10.5937683728        1.1761539085       -7.4462082341
 H        -8.2215982273        0.1717569884       -8.9352172145
 H        -8.3252618475        2.0040132631       -8.6327413582
 H        -6.8196566890        1.0858026701       -8.2336414360
 Na        2.6245801659       -0.7977211683        3.2459183938
