155

 C         2.5349641961        3.3694139580       -5.2583857975
 C         1.1142275842        4.0479844443       -4.7772379132
 C         1.2902414716        5.0758852056       -3.6095472917
 C         1.9943176849        4.5521504063       -2.3831691917
 C         1.5673980009        3.2877594686       -1.5868834743
 C         2.0986291692        6.1925315801       -4.1784512947
 C        -0.1861491427        5.6173281953       -2.9597045038
 O         0.1007855992        3.7926572439       -5.3412026240
 O         2.7791360619        5.2503538415       -1.7608446890
 C         0.8039230197        3.4279025806       -0.1343689749
 C         0.0855585556        2.2400704760        0.5194568443
 C        -0.3533583819        2.3872134484        1.9515188492
 C         0.7092735756        1.6308479001        2.8712489517
 C         1.1039432931        2.1609213440        4.2935133896
 O        -0.2766783822        1.2384698169       -0.0605448944
 O         0.9141978580        0.5200800673        2.6163689436
 C        -0.4476925492        3.9172341512        2.6253278232
 C        -1.7173632177        1.7374837245        2.1911121643
 C         2.2274144092        3.0716614263        4.6384281047
 C         3.6454442075        2.5766120985        4.2026917818
 C         4.8912564960        3.3223081441        4.4695294062
 C         5.7541379816        2.0094861873        5.1351056659
 C         5.4105241246        1.4762019030        6.5184198971
 C         5.4164028123        3.6905271074        3.0835528674
 C         4.7526990496        4.4402056715        5.4093654144
 O         3.8301644738        1.4202286171        3.7217793362
 O         6.5655394214        1.4112920071        4.4284248099
 C         5.9201485543       -0.0249270885        6.5448415465
 C         4.9276756654       -0.9181781388        5.7741283112
 C         5.1120671765       -2.4995749230        5.6983553630
 C         4.1416375361       -3.1295537911        4.6114150929
 C         3.2544364865       -4.3053474314        4.9889848013
 O         3.8623184978       -0.4253584669        5.5171740775
 O         4.3106043934       -2.7145720546        3.4892475636
 C         6.6705011756       -2.9567680795        5.3580570539
 C         4.8174597439       -2.8122470439        7.1931488889
 C         1.9653156565       -4.6169435996        4.2270940913
 C         0.8725928545       -3.4763944649        3.8758026458
 C        -0.6197428155       -3.8135059214        3.5607858461
 C        -1.1128992917       -2.8971577378        2.2718268969
 C        -1.9703542019       -3.5521817432        1.1153655500
 C        -0.7073068405       -5.4078026716        3.5378745496
 C        -1.3977267144       -3.3984726325        4.8266441322
 O         1.1653575051       -2.3064209757        4.0075121554
 O        -0.9967622531       -1.6962813604        2.1723174801
 C        -0.9514959988       -4.2609157398        0.3935983759
 C        -1.2646270812       -5.3073554299       -0.6997564694
 C        -1.8735886052       -4.9380150425       -2.1386939727
 C        -1.9143112834       -3.3163248680       -2.4256764540
 C        -3.1634587806       -2.5567852494       -2.4239945069
 O        -1.0877588134       -6.4691299526       -0.3400799977
 O        -0.7973271485       -2.6729840837       -2.2378957937
 C        -0.9649236363       -5.7110202963       -3.1436438402
 C        -3.2969843817       -5.5974976976       -2.1997009213
 C        -3.1822169856       -1.0874447200       -2.9922623713
 C        -3.1384186809       -0.8091607592       -4.6607120114
 C        -2.6069665364        0.5993696589       -5.2564760213
 C        -3.8476577840        1.5622251518       -5.3577086824
 C        -5.1737623249        0.9260360773       -5.5331636094
 C        -1.4031794205        1.1177257172       -4.5205793450
 C        -2.1154089615        0.0618972877       -6.7994814172
 O        -3.0707185030       -1.7755885008       -5.3446531276
 O        -3.6701075869        2.7607215720       -5.4410847805
 C        -6.3240278587        1.8717369177       -5.8571091115
 C        -7.6897487410        1.2041914597       -5.6245537847
 C        -8.6708296881        0.9925349546       -6.7986887825
 C        -9.3085625766       -0.5331850836       -6.7878905153
 C        -8.5553842088       -1.5162436814       -5.9105910799
 O        -7.9868872921        0.8885447711       -4.4575579258
 O       -10.4173787450       -0.7259323439       -7.2504881129
 C        -9.9357352409        1.9091223717       -6.5993074059
 C        -8.1298205740        1.3026240222       -8.1595847865
 H         2.6826214047        2.3247929350       -5.1749068669
 H         2.6085206969        3.4773558467       -6.3824803618
 H         3.3798054783        3.9016692062       -4.7477555113
 H         0.8871742106        2.4878804587       -1.9454919803
 H         2.4310050551        2.5950279559       -1.4198097368
 H         2.9156558192        5.6978725376       -4.8787193317
 H         2.4526734884        6.7412800964       -3.3485905028
 H         1.5441901576        6.7890044642       -4.9319300989
 H        -0.4243723164        5.7012661206       -1.8696337608
 H        -0.4899387721        6.5444742633       -3.4156619460
 H        -0.9602090417        4.9119143321       -3.2223858207
 H         1.5072161186        3.7797890966        0.6258229072
 H        -0.0152095092        4.1962273417       -0.3403296721
 H         0.2127500196        2.6083509042        4.7398964318
 H         1.2329600175        1.2690855888        4.9859069600
 H        -0.6694991716        3.5585363195        3.6657722836
 H        -1.3542591227        4.4679960561        2.2358685152
 H         0.6206640478        4.1908815979        2.5503485616
 H        -2.5525498873        2.3173249728        1.8658581249
 H        -1.9051617191        0.7620329664        1.8101686646
 H        -1.8631442159        1.5665343855        3.2380682140
 H         2.2581172379        3.2891557288        5.7344812988
 H         2.2583118188        4.0230432239        3.9970227352
 H         5.8895907532        2.0167102878        7.4136802803
 H         4.2772729054        1.5892705489        6.6536311605
 H         5.8706483808        2.7809717665        2.5047823638
 H         6.1941538775        4.3737942284        3.3329348124
 H         4.6351244387        4.0438205495        2.4523772938
 H         5.6368931736        4.7855323629        5.9589169586
 H         4.4609406346        5.3163044566        4.9337436871
 H         4.0415982279        4.2082156135        6.1596674618
 H         6.8243544513       -0.3135711376        6.1096718747
 H         5.7873716925       -0.1965448652        7.6142937282
 H         3.9980147930       -5.1645997255        4.8055266443
 H         2.9844344834       -4.4466452818        6.0103711266
 H         6.7718953329       -4.0101816499        5.6741479219
 H         7.2773582982       -2.3244737952        5.9392683066
 H         6.8928686107       -2.5758832650        4.3187866232
 H         4.0807553319       -2.2348261757        7.6429176344
 H         4.5416035530       -3.7903059312        7.3771546281
 H         5.6805283038       -2.4542435415        7.8206192464
 H         1.5160708018       -5.3806434360        4.8527376596
 H         2.2932738084       -5.0777767853        3.3058935363
 H        -2.6653419647       -4.2956588879        1.4873482614
 H        -2.4304922533       -2.6261331442        0.6390126815
 H         0.0956982068       -5.8907865437        2.9129571523
 H        -1.6957256928       -5.7540532341        3.1983088556
 H        -0.4891490658       -5.7807134002        4.5146704584
 H        -1.6727052562       -4.2231157003        5.5270039752
 H        -0.7748832611       -2.7108394443        5.3790572123
 H        -2.2877687347       -2.8925698770        4.6303861914
 H        -0.2686828839       -3.5670723416       -0.1019233446
 H        -0.3244077783       -4.8085767322        1.1106135284
 H        -3.9229579863       -3.0994767897       -2.9811926607
 H        -3.5689658493       -2.2924459191       -1.4409025274
 H         0.1058877207       -5.4065786032       -2.9402423935
 H        -1.1359054435       -5.4050324206       -4.1482198307
 H        -1.1558322174       -6.6989697459       -2.9342356382
 H        -4.1023486320       -5.2869108094       -1.4215747656
 H        -3.7616563739       -5.4729841409       -3.2668614093
 H        -3.2217849196       -6.6967151412       -2.1247004386
 H        -2.3952719954       -0.4510830527       -2.3803998040
 H        -4.0532509577       -0.5176850324       -2.6817570053
 H        -4.9716415844        0.3220062759       -6.4292814841
 H        -5.5038839522        0.3193915855       -4.6573557430
 H        -1.6925596290        1.2529278264       -3.4691566194
 H        -0.8848299167        1.9362539492       -4.8504155441
 H        -0.5397615150        0.4053607796       -4.5898545953
 H        -1.6333914007        0.9401247133       -7.2096693724
 H        -1.4724653105       -0.7974573322       -6.6290616481
 H        -2.9546509124       -0.0487441550       -7.3772892683
 H        -6.3701302970        2.7407017417       -5.2901287018
 H        -6.0768139597        2.2156405166       -6.8644715681
 H        -7.5902088844       -1.5419211154       -6.2424321599
 H        -8.7917931204       -1.4619309076       -4.8283617775
 H        -9.0153520142       -2.4895479875       -6.0858722943
 H        -9.6846765635        2.5427406933       -5.7469693859
 H       -10.8706233636        1.3056580077       -6.4932861492
 H       -10.0840306175        2.5713444206       -7.4468205324
 H        -8.8893018601        1.1287513675       -8.9119655156
 H        -7.7710437143        2.2929095520       -8.1667515687
 H        -7.2882140691        0.5896164711       -8.3245759707
 Na        2.7131323579       -0.5578049204        3.6093585425
