155

 C         3.0110821483        3.6244958455       -5.4079272752
 C         1.8187829846        4.2218898533       -4.7692820040
 C         1.7541828248        5.2672427106       -3.5796640297
 C         1.7737394450        4.1668710288       -2.3785104553
 C         0.5069135773        3.9049398406       -1.5316462847
 C         3.0784177175        6.0111044888       -3.6301267654
 C         0.6316665417        6.1526507146       -3.7170521253
 O         0.7468235537        3.9895767274       -5.3001038821
 O         2.7194753487        3.4085812151       -2.2485736182
 C         0.9213441692        3.2886381329       -0.2281062361
 C        -0.3067791952        2.5303565791        0.4098189649
 C        -0.1518935276        2.1231287666        2.0811184207
 C         1.3562352923        1.9393814585        2.6708486879
 C         2.4454972871        3.0432699178        2.6365924410
 O        -1.3117483146        2.2867130593       -0.1653338477
 O         1.6971193409        0.8706119366        3.1618238840
 C        -0.7759956268        3.3253273296        2.8238271600
 C        -0.8452619660        0.6853636604        2.3143869702
 C         3.8652190769        2.7560367573        2.1197861240
 C         4.7810818782        2.3053595221        3.2828387171
 C         6.0778003419        2.9423599440        3.6845397722
 C         7.0878584795        1.7414364877        4.3090004457
 C         6.6863495979        1.0643125210        5.6146582500
 C         6.8371717986        3.7351336612        2.5131311920
 C         5.8363869352        4.0379734058        4.8580138888
 O         4.3450604581        1.3168760658        3.9445461946
 O         8.0140021702        1.4615155758        3.6274561164
 C         6.6849340116       -0.4859409276        5.3936512837
 C         5.3184054841       -1.0552042101        5.7465990127
 C         4.9984302297       -2.5941546598        5.8910025634
 C         4.5660379742       -3.1184726265        4.4383024365
 C         3.7387807281       -4.3986197430        4.2995049657
 O         4.4486990964       -0.2464577107        6.0060443281
 O         4.6427926826       -2.4506514199        3.4254555883
 C         6.2813136909       -3.4170658579        6.1243743348
 C         3.8992500272       -2.8129518423        6.9119094159
 C         2.4961430573       -4.2344222615        3.3889974326
 C         1.2753238621       -3.3432452996        3.9078661189
 C        -0.1743831275       -4.1177673585        3.9233606762
 C        -1.0819497983       -3.3839132404        2.7434833130
 C        -1.7419808814       -4.4023573588        1.8202090351
 C        -0.0796167549       -5.6769755835        3.6508121210
 C        -0.8775510324       -3.6633975146        5.2737873546
 O         1.3930154913       -2.1760295316        4.0654629639
 O        -1.2156011893       -2.1791374935        2.7029547104
 C        -2.6898394022       -3.7283349833        0.8729863693
 C        -2.7733993064       -4.6135857086       -0.4318615615
 C        -2.2305615195       -4.2609690574       -1.8356262599
 C        -1.5899519858       -2.8121229402       -1.9440790016
 C        -2.4907807465       -1.5023761795       -2.0473697704
 O        -3.0447475360       -5.8406882935       -0.2692322178
 O        -0.3442293261       -2.7217622518       -1.9685088059
 C        -1.0613429434       -5.2933502805       -2.0718928601
 C        -3.2848608517       -4.6227609034       -2.8881615542
 C        -2.3002959942       -0.8157247348       -3.4015223062
 C        -3.3066167706       -1.1050646043       -4.5501161603
 C        -3.3372350978       -0.2253136311       -5.8202231892
 C        -4.5991048106        0.7078286610       -5.6868241543
 C        -5.9547037118       -0.0105675602       -5.4692958787
 C        -2.0692526016        0.5547994005       -6.2090046229
 C        -3.5105280726       -1.1461420786       -7.1629171248
 O        -3.9535559653       -2.0878844697       -4.6801434646
 O        -4.4555127199        1.8611502801       -5.6243672423
 C        -7.1979615703        0.7874760918       -5.8934221138
 C        -8.6866452678        0.4578079043       -5.3931728119
 C        -9.6997620776        1.5759585779       -5.7021203331
 C       -11.1356471423        1.1827384438       -5.2140459028
 C       -11.6374068900       -0.2210205440       -5.7378439047
 O        -8.9470804399       -0.6015646167       -4.8474511989
 O       -11.8718417681        1.9939832549       -4.6864308059
 C        -9.1951377805        2.8645719315       -5.1516688257
 C        -9.8550998661        1.6682743378       -7.2333860055
 H         3.3571333799        2.6537448595       -4.9033355100
 H         2.6123591328        3.3010107963       -6.3133258623
 H         3.8559136078        4.2341245890       -5.4311068263
 H         0.0404838215        4.8904454916       -1.4019124049
 H        -0.2554751165        3.2822097882       -1.9813879519
 H         4.0115821593        5.3384931113       -3.5925698994
 H         3.0178616989        6.7541471768       -2.9068454345
 H         3.3067972003        6.6330889354       -4.5192866828
 H         0.5528252582        6.8588038098       -2.8640204686
 H         0.6334238212        6.7249160320       -4.6705965238
 H        -0.3687452142        5.7457565798       -3.5034422002
 H         1.8821910778        2.7731833724       -0.1983359338
 H         1.0577444892        4.0867018538        0.4608826522
 H         2.2294352099        3.8966992807        1.8899357776
 H         2.3416146305        3.5191448236        3.6369246299
 H        -0.4691792854        3.2213919431        3.9552922695
 H        -1.8047827687        3.1816611496        2.5510101879
 H        -0.1235844269        4.1846705023        2.5910355390
 H        -1.6581786137        0.7493100774        3.0421087389
 H        -1.0285016787        0.1787881585        1.3656372345
 H        -0.2393926184       -0.0351942465        2.8605716240
 H         4.4015706133        3.5754470660        1.6771135844
 H         3.8150908690        1.9695865927        1.4247027364
 H         7.4720632565        1.3299638993        6.4643965817
 H         5.6776531091        1.4686317041        5.9227941361
 H         6.9890833783        2.9939391119        1.6685973537
 H         7.7941829477        3.9455218049        2.8766381847
 H         6.2515519925        4.5537933270        2.3614002416
 H         4.7773048025        3.7694717863        5.2494003563
 H         6.5242077437        3.9095536247        5.7201467378
 H         5.8316906355        5.0903333215        4.5109717511
 H         6.9913859039       -0.7707885978        4.4205038063
 H         7.4745015847       -0.9096493238        5.9953540567
 H         4.3450833262       -5.1132023448        3.7788725081
 H         3.4866387440       -4.9867380814        5.3317068777
 H         5.8295629619       -4.4082022767        6.0078213742
 H         6.8983762490       -3.2875959141        6.9629269314
 H         6.9777304173       -3.1368359456        5.2467123448
 H         2.9686600988       -2.4052742262        6.6210908526
 H         3.8028798027       -3.8641235989        6.9636450500
 H         3.9775948822       -2.3721251812        7.9579580208
 H         2.2293417824       -5.1544225984        2.9413924011
 H         2.9259196008       -3.7237110748        2.5189262011
 H        -1.2904982084       -5.0821822128        1.1057054301
 H        -2.2681685476       -4.9947823654        2.6293062197
 H         0.3680237653       -5.9048018733        2.6974478421
 H        -1.0538163984       -5.9968685544        3.5157076893
 H         0.5189790127       -6.1754120011        4.3868133329
 H        -0.4379456026       -2.6232452101        5.5264279108
 H        -1.9526979532       -3.7503689459        5.0977486576
 H        -0.6460761031       -4.3539917882        6.0346420337
 H        -3.6806603991       -3.7453654783        1.2807299743
 H        -2.4610020362       -2.8031616195        0.4288369708
 H        -3.4762883734       -1.7578955896       -1.6917649011
 H        -2.1107099302       -0.7622658726       -1.2046675041
 H        -0.1855943822       -5.1783609213       -1.3092555555
 H        -0.5842371549       -5.1107246848       -3.0533800751
 H        -1.4986400674       -6.2813515670       -2.0663163866
 H        -4.2669278436       -4.1090142714       -2.8157293318
 H        -2.8822178938       -4.3622773540       -3.8926772546
 H        -3.5448252970       -5.6193163972       -2.9932980669
 H        -1.3478727439       -1.3256037611       -3.7039321955
 H        -1.8598224457        0.2363964450       -3.2816825188
 H        -5.8010693453       -0.9487599600       -6.1562995694
 H        -6.0364084970       -0.3500429626       -4.4292648625
 H        -2.0537657762        1.5339724748       -5.7944340097
 H        -2.0299055938        0.6936397999       -7.2963537806
 H        -1.0394206138        0.1567107544       -5.9362439237
 H        -4.1462719932       -0.5623115695       -7.9222858649
 H        -2.4752660062       -1.4340415201       -7.6302853626
 H        -4.1358466331       -1.9082403142       -6.7683202025
 H        -7.1025878622        1.7950656287       -5.4272404299
 H        -7.2814306570        1.0118059733       -6.9424967929
 H       -11.1469808616       -0.6964253438       -6.5431774220
 H       -11.2458084723       -1.0219552124       -5.0070748224
 H       -12.7368458626       -0.2714001727       -5.9761287243
 H        -9.8749698092        3.6863030658       -5.3612580869
 H        -8.2504912309        2.9964035453       -5.6598495710
 H        -9.1090720532        2.8444002116       -4.0777029642
 H       -10.6864060098        2.3722914544       -7.3443933930
 H        -8.8903770680        2.0107366798       -7.5974093722
 H       -10.1977112858        0.6401532994       -7.5620722758
 Na        2.9961530971       -0.3939581572        4.3625891197
