155

 C        -2.6104422441       -8.0947001510        2.5886534043
 C        -1.6096715921       -6.9167243859        2.5599597481
 C        -0.5857953151       -6.7311139063        3.9106317852
 C        -0.5514640843       -5.1511745839        4.1501770934
 C        -1.9656112815       -4.4510661696        4.0797810721
 C        -1.0644458495       -7.5034390993        5.2567864894
 C         0.7388668060       -7.4775616701        3.4490305876
 O        -1.4537406647       -6.2485351380        1.5599064240
 O         0.4434670269       -4.5515916765        4.4595560798
 C        -2.0445783336       -2.9565649951        4.5420738247
 C        -2.7847496537       -2.0626180360        3.4765378187
 C        -3.4841594943       -0.6612461974        3.9040745960
 C        -3.4896092068        0.4479739035        2.6979621303
 C        -2.1430434051        0.8199043025        2.1281926268
 O        -2.7454566698       -2.3579682837        2.3090334312
 O        -4.5833045488        0.8797541708        2.3509042894
 C        -4.9126646509       -0.9392800460        4.3815962463
 C        -2.7180590789       -0.0433986882        5.1053214440
 C        -2.2854816632        1.9039105860        1.0936988113
 C        -1.0199698081        2.0990227768        0.2578884444
 C        -0.8268409640        3.4248594584       -0.6152858433
 C         0.2818547733        4.0300819150        0.2760328994
 C        -0.1657059999        5.0444641039        1.3097267470
 C        -0.1951509057        3.1197103137       -2.0136969382
 C        -2.1526390182        4.2151281594       -0.8561887332
 O        -0.0364109863        1.3659244421        0.3165038207
 O         1.4332848060        3.7262981739        0.1571750337
 C         0.9048313407        5.4792771971        2.3790342441
 C         0.8617915252        4.4341664675        3.5981745817
 C         1.9745433693        4.5969800365        4.7843114968
 C         3.1319217958        3.6722110241        4.2829574547
 C         3.1623127529        2.1256168900        4.6943373300
 O         0.1234048995        3.4887538113        3.6202129067
 O         3.9353133905        4.1185134125        3.5137996081
 C         2.4336664870        6.0475611137        4.8464247859
 C         1.3624756435        4.0835935036        6.0999175526
 C         4.4153353895        1.5616449278        3.8970300613
 C         4.2701296232        1.8301969004        2.3786640909
 C         5.3402778090        2.2695354554        1.3927580107
 C         5.3320498499        1.2328449591        0.1233340419
 C         6.1132781015        1.6925054443       -1.1007036249
 C         4.9895352746        3.6810458447        0.7400271609
 C         6.6773072851        2.1767688880        2.1343875814
 O         3.2136683961        1.6566521699        1.8428479347
 O         4.7077816369        0.2140030513        0.0171765471
 C         5.7254300847        0.8523998600       -2.3404962842
 C         4.2681455448        1.1048352279       -2.7388470840
 C         3.5200626803        0.0940829466       -3.5480985912
 C         2.6880233151       -0.8341775667       -2.5269954216
 C         2.2075268448       -2.2682373769       -3.0783217610
 O         3.6547308244        2.0073498772       -2.1980965990
 O         2.3753918814       -0.4809666809       -1.4135492392
 C         2.4500621327        0.7100157308       -4.5260474269
 C         4.4285234414       -0.8915482951       -4.4630198634
 C         0.7373653927       -2.5755929373       -2.7175002003
 C        -0.2671526204       -1.6197574469       -3.3352565130
 C        -1.7151321316       -2.3038115122       -3.6452979716
 C        -2.6739172394       -1.0816025317       -3.9756633114
 C        -3.1823303178       -0.7955338447       -5.4895357108
 C        -1.6529884635       -3.4080578056       -4.7153981463
 C        -2.2949741970       -3.0043096146       -2.3744167867
 O         0.0339838897       -0.4946123047       -3.5715745459
 O        -2.8339291093       -0.2784892320       -3.1048148185
 C        -4.6085572369       -1.2515289280       -5.6197052736
 C        -5.5085877716       -0.1020593055       -6.2861739582
 C        -7.0530293574       -0.2369585316       -6.4816794559
 C        -7.5064585562       -1.6204801230       -7.0689256623
 C        -8.7242756974       -1.6193085633       -7.9855210858
 O        -4.9205486548        0.8768706742       -6.7014989395
 O        -6.9044299505       -2.6414770101       -6.8843089749
 C        -7.7881341507       -0.2642769049       -5.0480865250
 C        -7.5580771969        0.9292417296       -7.3354760202
 H        -3.4243723209       -8.2193837110        3.3188081600
 H        -3.1663106200       -8.1549632370        1.6571705576
 H        -2.2105280370       -9.0711959264        2.7618690558
 H        -2.3135073833       -4.5677984583        3.0795829718
 H        -2.7196384608       -4.9934592645        4.7659830905
 H        -2.0198922025       -7.2819315232        5.6213792558
 H        -0.2369840683       -7.3633177268        5.8179803961
 H        -1.1780397394       -8.5940317194        5.0508495994
 H         1.2044127078       -6.9838708510        2.5782658270
 H         1.3660890516       -7.5345030979        4.2801071357
 H         0.4271042411       -8.4171664948        3.1520377503
 H        -2.4988300825       -2.8454660791        5.5074974827
 H        -0.9333212345       -2.6667844305        4.5260652270
 H        -1.5274806714        1.0968767960        2.9030813053
 H        -1.7627545277       -0.0511053641        1.6719073586
 H        -5.2947737691       -0.0194693329        4.8616914144
 H        -5.1757960295       -1.7666365472        4.9853914834
 H        -5.6219781687       -0.9959500761        3.5126450715
 H        -2.8330357852       -0.6080483348        6.0737470343
 H        -1.6614067872        0.1994628933        4.9953904281
 H        -3.0460063064        0.9932708321        5.2903990119
 H        -2.5113378613        2.9057181691        1.5486567758
 H        -2.9824249948        1.6016522134        0.3146768393
 H        -0.3702111859        5.9828171251        0.7374813359
 H        -1.0406245412        4.5871354090        1.7778499503
 H         0.6447403713        2.4224534856       -2.0986767275
 H         0.3612262716        3.8831066360       -2.4478198202
 H        -0.9222235402        2.8050457712       -2.7298460682
 H        -2.9002196380        3.5927811796       -1.3285023931
 H        -2.4327881041        4.7068737414        0.0349780044
 H        -1.8248073493        5.0308005698       -1.5238801095
 H         1.9860246455        5.4536204832        2.0062552624
 H         0.6305426752        6.4638660410        2.7190236449
 H         3.0695594014        1.9751568728        5.7764012917
 H         2.2645819529        1.7025834149        4.2109478989
 H         3.0041799546        6.2584008999        3.9656740656
 H         3.1793027515        6.2240338578        5.6291089764
 H         1.7078741754        6.8919124042        4.7841931002
 H         0.4344640610        4.5712213627        6.2527263103
 H         1.2896713876        2.9844955975        6.0477637372
 H         2.0426146538        4.3705319033        6.9231440658
 H         4.4752052132        0.4483807777        4.0694160693
 H         5.4189418551        1.9415696593        4.2481115581
 H         5.9934921084        2.7789473006       -1.2051425709
 H         7.1411630933        1.5464569470       -0.8960811151
 H         5.8807073347        4.1103797102        0.2997257280
 H         4.5440574153        4.2640460782        1.4619778033
 H         4.3809146365        3.6124247826       -0.2100122811
 H         7.5504225725        2.4051023889        1.4787707885
 H         6.7349066649        2.6835060690        3.0228163402
 H         6.8369607238        1.1495186328        2.4237843555
 H         6.3003092630        1.3151634090       -3.1221484411
 H         6.1368835666       -0.1874702511       -2.1753222206
 H         2.3490851138       -2.1887075102       -4.2117671186
 H         2.7770705192       -3.0587706008       -2.6239379673
 H         1.7427839262        1.2017732578       -3.9109480036
 H         2.0057284068       -0.0516107525       -5.1022948654
 H         3.0279705143        1.3603502678       -5.1987609962
 H         3.8995106960       -0.9810872852       -5.3874644540
 H         5.4125103211       -0.3536083384       -4.7449080877
 H         4.6184125628       -1.8521544014       -4.0999702026
 H         0.6039940375       -2.6555411907       -1.6678841339
 H         0.3431397197       -3.6107801118       -3.0063549799
 H        -2.9117998217        0.2724372532       -5.8037303604
 H        -2.4818620174       -1.3584671273       -6.1279886987
 H        -0.9910947788       -3.0529995836       -5.5781571891
 H        -2.6810255648       -3.6461829081       -4.8671038643
 H        -1.2934249407       -4.3640597068       -4.3819184526
 H        -2.5572723609       -2.3547911308       -1.4918743031
 H        -3.2738643203       -3.5242714693       -2.4533763421
 H        -1.5838590619       -3.7555118008       -2.1360334591
 H        -4.8567286974       -2.1558531660       -6.1564347931
 H        -5.0878510064       -1.5187153074       -4.6512127797
 H        -9.4921939628       -1.8793804464       -7.2849743097
 H        -8.7995132807       -0.6847842709       -8.4942509870
 H        -8.7948760999       -2.5559104882       -8.5635059882
 H        -8.2319861629        0.7137815288       -4.7687455436
 H        -7.1127515314       -0.5074148267       -4.1577646679
 H        -8.5710484557       -0.9520272233       -5.1523742010
 H        -8.6156904767        1.0881715647       -7.3200398645
 H        -7.0655347068        1.8513101383       -7.1300475038
 H        -7.4672243865        0.7459263584       -8.3565086896
 Na        2.2818319063        1.5231826564       -0.2541769249
