155

 C         3.2906346525        3.2145127411       -5.3216038360
 C         1.9948474939        3.7744432642       -4.8981792648
 C         2.2202577964        4.8801209636       -3.8532860088
 C         2.1496025281        4.0821130244       -2.3500647898
 C         0.9664528146        3.2192857040       -2.0818364511
 C         3.6415300521        5.4676690110       -3.9005009115
 C         1.1102493444        5.9712077949       -3.8955227407
 O         0.9107387396        3.4212022612       -5.2712590587
 O         3.1590174173        4.1687751097       -1.7218023235
 C         1.0048994860        2.5335427818       -0.7303690041
 C         0.0642640920        3.2502707183        0.3043127277
 C         0.1042982847        2.6604556809        1.8493084982
 C         1.5893766622        2.2006523957        2.4739846738
 C         2.4994955041        3.4476092503        2.7416085247
 O        -0.5352172511        4.2483273411       -0.0177147369
 O         1.9330919603        1.0420460687        2.4327669859
 C        -0.6507345102        3.5802974995        2.8854115714
 C        -0.7519120224        1.2557308158        1.7652537932
 C         3.9926796869        3.0167800421        2.4953387319
 C         4.7934121920        2.2387748014        3.4929388839
 C         6.3318147328        1.8710873791        3.0553976605
 C         6.8003338851        0.6253798407        3.8735412475
 C         7.2989884141        0.6198829386        5.3734286789
 C         6.3802744459        1.4294651822        1.6243893421
 C         7.3244655726        3.1133697205        3.4176484832
 O         4.4195051355        2.0892943799        4.6028984218
 O         6.9742807872       -0.4099984678        3.2745671617
 C         7.1579270343       -0.8733158153        5.8925773194
 C         5.7296422532       -1.1333202877        5.5591590126
 C         5.3325830291       -2.5496814296        5.1211967535
 C         4.5869776323       -2.6754645405        3.7216236777
 C         3.8629909451       -3.9856709965        3.4841569712
 O         4.9134937214       -0.2155409185        5.6538160104
 O         4.7114516490       -1.8446165666        2.7974882380
 C         6.5516555608       -3.5485221707        4.8816809822
 C         4.5903119534       -3.1732361281        6.3856914616
 C         2.5754604970       -3.4792198770        2.6538481468
 C         1.5698862867       -3.0667354448        3.7318060894
 C         0.1700538333       -3.7810306066        3.9510513632
 C        -0.6020137952       -3.2175179611        2.7013683703
 C        -0.2773081259       -3.7350898476        1.3338615830
 C         0.4039949672       -5.2607406615        3.8566590016
 C        -0.5467687860       -3.4960977074        5.2626141217
 O         1.8534810443       -2.1547093243        4.3969602528
 O        -1.2809601671       -2.2441605820        2.8394054909
 C        -1.5120775736       -4.7134974689        1.0144057298
 C        -2.5110722554       -4.1056161448        0.0486764572
 C        -2.1575631684       -4.2790909557       -1.4507421537
 C        -1.8033081778       -2.8666368292       -1.8540116906
 C        -2.8778128773       -1.7269210437       -2.1599214450
 O        -3.4063211049       -3.4105644009        0.3875365241
 O        -0.6141891437       -2.5769233393       -2.0889009827
 C        -0.9719201173       -5.1579220632       -1.8631371046
 C        -3.5327036461       -4.6172111466       -2.2564836375
 C        -2.8819365743       -1.5135970471       -3.7166524236
 C        -4.3422566560       -1.7041272001       -4.1859408229
 C        -4.6217991862       -1.4576772788       -5.7473704806
 C        -5.5316651529        0.0023569086       -5.7124673740
 C        -7.0720480438       -0.0526748159       -5.5069955469
 C        -3.2783703892       -1.2292954636       -6.5160402623
 C        -5.3436513018       -2.5775844993       -6.4852033164
 O        -5.2128112553       -1.7018480954       -3.2836731970
 O        -4.7975646436        0.9426105385       -5.4259952045
 C        -7.7244947972        1.2834681215       -5.3283398555
 C        -9.2636696987        1.1561103616       -5.3745039292
 C       -10.1835487523        2.3782451997       -4.9881980447
 C       -11.3183650108        1.6410655719       -4.0799384287
 C       -12.5182348948        0.9453226424       -4.7461322146
 O        -9.6988657414        0.1529036112       -5.9290965912
 O       -11.1821357417        1.5982141821       -2.8739130052
 C        -9.5692875530        3.3700091253       -3.9980412289
 C       -10.6764009102        3.0562429116       -6.2582333057
 H         3.8347220891        2.6535943010       -4.5315192299
 H         3.2456373607        2.7011154508       -6.3376654646
 H         4.0125539549        4.0394402914       -5.4902390889
 H         0.1352935231        3.9202048602       -2.4470308857
 H         1.0756471756        2.4202315894       -2.8004656045
 H         4.2424921214        4.7122240965       -3.4924262059
 H         3.6149356591        6.2185527894       -2.9811381202
 H         3.9832004196        6.1446960424       -4.6616968758
 H         1.3031576293        6.8234414378       -3.2111232265
 H         1.0294294915        6.5345617959       -4.8138173429
 H         0.1282639355        5.5249140074       -3.8584169917
 H         0.7403091642        1.5042552617       -0.7895038609
 H         2.0601749361        2.6565594194       -0.3008174713
 H         2.3946836616        4.2516661179        2.0632455206
 H         2.4447803682        4.0007104405        3.7006263945
 H        -0.9375917646        3.0681794920        3.7325790477
 H        -1.5192300385        4.0717582630        2.4487349143
 H         0.0860749490        4.2943831392        3.1079403546
 H        -0.3752612845        0.4621926548        2.3447683040
 H        -1.6994190713        1.4516872418        2.2636717910
 H        -1.0209177173        1.0498072311        0.7126027779
 H         4.6293442312        3.9721024846        2.2370722763
 H         3.9361873989        2.4391683309        1.5857798285
 H         8.2688692277        0.9547659719        5.4539916451
 H         6.7372447676        1.2114404734        6.0594840015
 H         6.0051203711        0.4705547453        1.4181597603
 H         7.4710295078        1.5630462539        1.2934465310
 H         5.7672020036        2.2262152343        1.0710190715
 H         7.8142659856        2.9265866785        4.3436163384
 H         8.0395972587        3.3834717298        2.6140663556
 H         6.6632673819        4.0315727626        3.5966690969
 H         7.8907138884       -1.5608253913        5.4233113559
 H         7.4272004220       -0.7972366322        7.0253266839
 H         4.5358849179       -4.5936939372        2.7155298923
 H         3.6496588410       -4.5229691430        4.2855269535
 H         6.2716580786       -4.4953978294        4.4717216426
 H         7.1717681630       -3.5566214585        5.8545827405
 H         7.2806025760       -3.2016143041        4.1945959641
 H         3.7065451179       -2.5371106427        6.5830189491
 H         4.2793150910       -4.2461983249        6.1929834448
 H         5.2721817477       -3.3336340401        7.1624710536
 H         2.2337242634       -4.1949362687        1.9272860673
 H         2.6952771925       -2.4709223537        2.1895313677
 H        -0.4899646792       -2.9695345645        0.6011454813
 H         0.6575739755       -4.2280672596        1.0089082462
 H         1.1690650422       -5.5499230849        3.0538239615
 H        -0.5683563719       -5.8153622829        3.7267424707
 H         0.8657001455       -5.6333311152        4.8029701276
 H        -0.8703402608       -4.2908691333        5.8334691214
 H         0.0827891650       -2.7612597311        5.7464551836
 H        -1.3987978611       -2.8438211193        4.8706970311
 H        -1.3786132362       -5.7803581904        0.8228979929
 H        -2.2548672852       -4.8468624688        1.8918380489
 H        -3.8822306246       -2.0124218242       -1.7708234932
 H        -2.5389806692       -0.8239967184       -1.5950582267
 H        -0.0343408875       -4.6836477164       -1.7886376888
 H        -1.1768768377       -5.3562093898       -2.9282375384
 H        -0.8877716330       -6.1867929654       -1.4407459396
 H        -4.3037548173       -4.4219627531       -1.4787658738
 H        -3.6977033676       -4.0505207841       -3.1928507794
 H        -3.6243192548       -5.7431672938       -2.5304871543
 H        -2.3228335797       -2.2969645786       -4.2166473752
 H        -2.4321892913       -0.6279177629       -3.8940369795
 H        -7.5037040849       -0.6891523500       -6.2722703015
 H        -7.1910351191       -0.7052948847       -4.6063554544
 H        -3.0553127948       -0.1900255418       -6.1016488068
 H        -3.4224071010       -1.0376143296       -7.5688229831
 H        -2.5644984785       -1.9781787409       -6.3645004694
 H        -5.2273205659       -2.5691167134       -7.5315145668
 H        -4.9457052114       -3.5005004586       -6.2376428134
 H        -6.3365446039       -2.6335316688       -6.1232022136
 H        -7.6525399812        1.5297195199       -4.3560065486
 H        -7.3934353777        2.1056402025       -6.0063604370
 H       -13.0142898408        1.5560338924       -5.4731790275
 H       -12.1425104006        0.0503180819       -5.1186105915
 H       -13.2495454556        0.5791885059       -4.0871075879
 H       -10.2767941631        3.9670083240       -3.4353175739
 H        -8.8482949198        4.0871943759       -4.4211964376
 H        -8.9274846838        2.8700360264       -3.2380232377
 H       -11.4531404263        3.6546669049       -5.8156482537
 H        -9.8350267411        3.6358944282       -6.6380212676
 H       -11.0267443356        2.3485959876       -6.9928827650
 Na        3.1604856009        0.0114753425        4.3427305563
