155

 C         4.0516833102        3.2914334869       -5.7971439129
 C         2.8543182975        3.4734547655       -4.8669538579
 C         2.7691284900        4.3142360190       -3.5508021669
 C         2.3982185420        3.3202238515       -2.4242229820
 C         0.9402111984        2.9820908818       -2.1523619283
 C         4.1633463895        5.0102233612       -3.0361720417
 C         1.6753986244        5.3255352914       -3.7697391148
 O         1.9295503176        2.7138374105       -5.0823839155
 O         3.1987457376        2.7057639884       -1.7118129634
 C         0.7499186976        2.5443939871       -0.7689661483
 C         0.6686791716        3.5706789135        0.3491214558
 C         0.4670512559        3.1469537177        2.0360285032
 C         1.8388679311        2.8307504487        2.7493651234
 C         3.1925596424        3.6437252007        2.5209576207
 O         0.8595184671        4.7607449761        0.2833561927
 O         1.8306364372        1.7322626068        3.2986966509
 C        -0.0941027340        4.4638535242        2.6042694202
 C        -0.5178541000        2.0286082779        2.1500011140
 C         4.5333898814        2.9440582085        1.8178083815
 C         5.4575073079        1.9670655300        2.7816562025
 C         6.9336690035        1.7654731974        2.3704364262
 C         7.6638088989        0.6910569766        3.2995902093
 C         7.8050114865        0.8235837307        4.8080554178
 C         6.9234598440        1.0727305662        0.9198621956
 C         7.6481486738        3.1388943395        2.4518945395
 O         4.9530727427        1.5368869479        3.8391179914
 O         8.2365876246       -0.2623345617        2.7599138176
 C         7.8011077802       -0.5370169577        5.5680135631
 C         6.4504402728       -1.2127822109        5.3395223905
 C         6.1844183167       -2.6197979115        4.7040280347
 C         5.0088756306       -2.5533339430        3.7401865468
 C         4.1255365156       -3.7774750870        3.6232204292
 O         5.4535425275       -0.5745217937        5.6846385873
 O         4.7111908180       -1.5248864884        3.1471673983
 C         7.4755854170       -3.2799293996        4.0598955501
 C         5.6381510184       -3.4058785085        6.0658896999
 C         2.7258707633       -3.5473506077        2.9432037107
 C         1.5679144263       -2.9712048925        3.6929386503
 C         0.2262896476       -3.7087106237        3.8449340591
 C        -0.8830728293       -3.1199897496        2.6246987530
 C        -0.4236645291       -2.6583323390        1.2874401316
 C         0.3803665911       -5.2044326114        3.9143035480
 C        -0.3354420910       -3.0047555604        5.2576910927
 O         1.6517898839       -1.7520563691        3.9142315112
 O        -2.0224617956       -3.1795617662        3.0588743545
 C        -0.7276925036       -3.5609912566       -0.0028794167
 C        -2.2560099518       -3.8115615447       -0.1314434266
 C        -2.8585186538       -4.5441779564       -1.4926134437
 C        -2.6944179673       -3.4297690484       -2.5700795163
 C        -3.8166514653       -2.1316296612       -2.3652297731
 O        -2.9961408968       -3.3754798018        0.7003218377
 O        -1.8952730782       -3.4230537510       -3.5375766500
 C        -2.0847005954       -5.8067259988       -1.8954140712
 C        -4.3349548282       -4.9036323812       -1.0945760115
 C        -4.5790109632       -1.5678643285       -3.5524517322
 C        -6.0704311530       -2.0236390098       -3.7966741836
 C        -6.7729075622       -1.8823695518       -5.2449467775
 C        -6.9365537372       -0.3791917808       -5.4931195103
 C        -8.4100389776        0.2654185814       -5.4291994398
 C        -5.7434854125       -2.3889430431       -6.1860242216
 C        -8.0401388139       -2.7932721959       -5.3430752900
 O        -6.7621512202       -2.3030495265       -2.9044140257
 O        -5.9742331747        0.3515000401       -5.7517070851
 C        -8.1090816972        1.7675725682       -5.0801799305
 C        -9.5001982074        2.5436006564       -5.4243576907
 C       -10.2018373273        2.9110015573       -4.1912748539
 C       -10.4725348820        1.6287244713       -3.2801541294
 C       -11.3954648615        0.5353464154       -3.8698179852
 O        -9.9091380712        2.5499686014       -6.5923646795
 O        -9.8720975249        1.4046085596       -2.2598311341
 C        -9.2432345924        3.8806248357       -3.4868831081
 C       -11.5305515986        3.5728403373       -4.4481643471
 H         4.9928511719        3.3430101935       -5.4460473725
 H         3.9534808734        2.2824200163       -6.1949794046
 H         3.9515760278        3.9175101361       -6.6222209299
 H         0.2399381042        3.7678435677       -2.3502257485
 H         0.6412752894        2.1019417623       -2.7150674903
 H         5.1421813338        4.4831951837       -2.9485508645
 H         3.9876335592        5.4060294573       -2.1101475784
 H         4.3819632255        5.7101003592       -3.8270560149
 H         1.0913700523        5.4958703256       -2.9141823510
 H         2.1410410953        6.2201588064       -4.1532120269
 H         1.0571640723        4.8735631395       -4.5353143273
 H        -0.1228796999        1.9601513607       -0.6861817111
 H         1.5147391477        1.9005080287       -0.2364821763
 H         2.8952822969        4.5916601214        2.1198854860
 H         3.4794722735        3.7956117978        3.5743940315
 H        -0.1506266574        4.2359945858        3.6860113064
 H        -1.2109350277        4.5756681345        2.4492029461
 H         0.2999893288        5.5357568259        2.3915241072
 H        -1.1717313698        2.0987188741        3.0930268531
 H        -1.1541168937        2.0057519905        1.2784734035
 H         0.1089751653        1.1649867180        2.0295477754
 H         5.2141402120        3.6999764700        1.4432101552
 H         4.3565271612        2.2595017169        0.9229799295
 H         8.8440469031        1.2653523868        4.9818513712
 H         7.0421400013        1.5410703872        5.2638187170
 H         6.3847911464        0.0906776169        1.0189096974
 H         7.8633701982        0.8671834187        0.5361320102
 H         6.3309505784        1.4657060381        0.1440885137
 H         8.6808468488        2.8462239235        2.6563381994
 H         7.6539365402        3.6889757235        1.5405515460
 H         7.3333407367        3.8332940856        3.1698674020
 H         8.6664822721       -1.1877906828        5.3990547509
 H         7.8225719501       -0.3944650616        6.6178974247
 H         4.7117118628       -4.5259754251        3.1246854559
 H         3.9954006076       -4.2666623324        4.7174539274
 H         7.4170917923       -4.4006617809        3.8830000453
 H         8.3132800614       -3.1162559290        4.6519656892
 H         7.6484156301       -3.0130198098        3.0106534265
 H         4.6232555266       -3.0607996071        6.3611553007
 H         5.5411951020       -4.4071840913        5.6646008887
 H         6.4954264857       -3.3918039936        6.7887121935
 H         2.4906605045       -4.5988402460        2.6703080738
 H         2.9155110949       -3.0311054706        2.0604795753
 H        -1.0083816943       -1.7651113653        1.1038235780
 H         0.6506011242       -2.4518566393        1.2720420367
 H        -0.1892144014       -5.5836763874        3.1283792017
 H         0.0334186626       -5.6935204445        4.7629228825
 H         1.3417386400       -5.7064347904        3.8592399391
 H        -0.6456668269       -1.9178587920        5.2580383528
 H        -1.0833273274       -3.6708979539        5.7124511155
 H         0.5487947400       -2.8809707707        5.8522965525
 H        -0.6404202289       -2.9859741900       -0.9213953452
 H        -0.1897725546       -4.4893353589        0.1110237198
 H        -4.6177794489       -2.5067227629       -1.6767379987
 H        -3.2790491049       -1.3697784146       -1.8388398579
 H        -1.1665125745       -5.6096920150       -2.4323775948
 H        -2.7575278569       -6.3306772121       -2.5174424686
 H        -1.8507594424       -6.4866850863       -1.1021055813
 H        -5.0249573431       -4.2088825730       -1.4060040329
 H        -4.5110217649       -5.8588768432       -1.5439796387
 H        -4.3292827125       -5.0959263818       -0.0538188488
 H        -4.1446759330       -1.9054144969       -4.4346557056
 H        -4.7327336368       -0.4117925024       -3.5158458907
 H        -8.7529865811        0.1426872136       -6.3748453458
 H        -9.0122955434       -0.2539584513       -4.6399207638
 H        -5.0303200934       -1.6965732074       -6.4043911310
 H        -6.2188094483       -2.5493381942       -7.1502060748
 H        -5.3387700541       -3.4173266660       -5.8175228427
 H        -8.6889765356       -2.6719861578       -6.2714425324
 H        -7.6044504586       -3.8843218949       -5.3660186756
 H        -8.9262141884       -2.7384897112       -4.6011335340
 H        -7.8241782859        1.8921468631       -3.9677155752
 H        -7.2567466645        2.1960771040       -5.5810341619
 H       -10.8838206806       -0.0840066522       -4.6722665205
 H       -11.6376238361       -0.3248164570       -3.1399873102
 H       -12.3994132267        0.8337018080       -4.3045540965
 H        -9.8396798634        4.3910309250       -2.6600130159
 H        -8.6700672814        4.6991077812       -3.9283731237
 H        -8.4978767877        3.3784341830       -2.9497743533
 H       -12.0656073062        3.6086427136       -3.4991943040
 H       -11.4638163278        4.5406194146       -4.9141860725
 H       -12.0297492771        2.9987896111       -5.2336815569
 Na        3.2560472346       -0.0491799596        4.1065142280
