155

 C        -2.6079344444       -8.1481504748        2.8659921814
 C        -1.5669410797       -7.0327583392        2.7513180484
 C        -0.5963376907       -6.7596567951        4.0852216729
 C        -0.5405865304       -5.1752569711        4.2467976261
 C        -1.8790549937       -4.3723544515        4.1796663524
 C        -1.0968218503       -7.4410536670        5.4072655311
 C         0.8802940981       -7.0920309043        3.5614210535
 O        -1.4314780209       -6.3084966884        1.7853885739
 O         0.5268504942       -4.7063421247        4.5071658937
 C        -1.7925181039       -2.8210445311        4.4704738054
 C        -2.6416815771       -2.0206866282        3.4278398628
 C        -3.2633694618       -0.7028657624        3.9722743739
 C        -3.3454055170        0.3912342863        2.8053944361
 C        -1.9649023330        0.9306011137        2.2024679525
 O        -2.8095598732       -2.3768066302        2.2928370072
 O        -4.3976560559        0.7528227380        2.3569572992
 C        -4.6838004035       -1.0648199817        4.3651070372
 C        -2.4561266484       -0.0301392823        5.0892682683
 C        -2.2541017443        1.9157705501        1.0591595553
 C        -0.8742069791        2.1622056195        0.3462921334
 C        -0.7168739411        3.3855923277       -0.5798062778
 C         0.3096157167        4.2804554101        0.2737664756
 C        -0.2293950657        5.1733318948        1.4404121629
 C        -0.2465739179        2.9520729078       -1.9224981872
 C        -1.9889194657        4.1972097298       -0.7019929142
 O        -0.0669906451        1.2821695463        0.3986155970
 O         1.5080355179        4.1309644137        0.1154944803
 C         0.8690145649        5.4648857403        2.4002467724
 C         0.9339723713        4.3871713108        3.5167442720
 C         2.0395267886        4.5058574947        4.5854164129
 C         3.2649390201        3.6270961543        4.2001005454
 C         3.4836857765        2.1797535952        4.7015042098
 O         0.1562023462        3.4281918487        3.5620131607
 O         4.0198956755        4.1440022177        3.4003883823
 C         2.6404300678        5.9331301080        4.8449671559
 C         1.3920769456        4.0407272465        5.9417620536
 C         4.4612664674        1.4134985719        3.8749773186
 C         4.0999241543        1.5688444645        2.3510086835
 C         5.1995988291        2.1568006587        1.3364580332
 C         5.2508503279        1.1894693096        0.1455936698
 C         6.1517031415        1.3933851849       -1.0679491106
 C         4.8627568755        3.5413646204        0.7818181991
 C         6.6080132336        2.3280362930        1.8365375375
 O         2.9314173951        1.3938099646        1.9695808187
 O         4.5680003328        0.1859183353        0.1970811906
 C         5.6553872820        0.9179340537       -2.4271904382
 C         4.2108009533        1.0476930975       -2.6883148620
 C         3.5581882313        0.0689105864       -3.6208531573
 C         2.6061620827       -0.9797560834       -2.6765221881
 C         2.0132798696       -2.2380851039       -3.3652907440
 O         3.5374846423        2.0158771390       -2.3103895806
 O         2.2943832082       -0.6690101354       -1.5681009883
 C         2.4727812707        0.8227341398       -4.5226852945
 C         4.4997152803       -0.7726854358       -4.4156909046
 C         0.6775694538       -2.5173845088       -2.7717252981
 C        -0.4995599157       -1.6894693702       -3.4544241576
 C        -1.8743387642       -2.3447227782       -3.7221695327
 C        -2.8994292262       -1.1451579184       -4.2100443861
 C        -3.3611801319       -1.1007637721       -5.6694879038
 C        -1.7135076649       -3.3996928535       -4.8233391823
 C        -2.2872129642       -2.8076138560       -2.3044962071
 O        -0.2365188444       -0.5266430718       -3.7451619971
 O        -3.1792982652       -0.3287144207       -3.3885166275
 C        -4.8351759220       -1.2249830806       -5.4996762382
 C        -5.5445791341       -0.0897264312       -6.2479077510
 C        -7.0981296107       -0.1401207160       -6.3264956206
 C        -7.4447124333       -1.4152834318       -7.1196090039
 C        -8.8143281235       -1.4979797754       -7.9057230896
 O        -4.9067540740        0.8597132939       -6.6196406862
 O        -6.7413607619       -2.4333318792       -7.1621082123
 C        -7.7744072217       -0.1023431356       -4.9798322228
 C        -7.5984142926        1.1450806480       -7.0787653370
 H        -2.5522339543       -8.7927293292        3.7111077269
 H        -3.6095132759       -7.8235559158        2.8528803519
 H        -2.6343699247       -8.9237527150        2.0737016525
 H        -2.3499311693       -4.5929225133        3.1765999228
 H        -2.5782823063       -4.6770176178        4.8871843049
 H        -2.1794591071       -7.2961823530        5.3884955427
 H        -0.5032612693       -7.0745286854        6.2649163198
 H        -1.0550142188       -8.4993609466        5.3465179145
 H         0.9627617030       -6.7078127737        2.5876836955
 H         1.5965167779       -6.6634472156        4.3538020563
 H         1.0230699433       -8.2480811654        3.4821768720
 H        -2.1410781607       -2.7063976693        5.5170175832
 H        -0.8401139328       -2.4401925170        4.3071844359
 H        -1.2551260150        1.4594730767        2.9730116623
 H        -1.4602022908       -0.0112031337        1.7904416292
 H        -5.1055177484       -0.2638335943        4.9928682607
 H        -4.7345204690       -2.0772769089        4.9092339559
 H        -5.4202458494       -1.1524994357        3.6101371298
 H        -2.5739990038       -0.4915761567        6.0410643172
 H        -1.4156744084        0.2262850474        4.9704213200
 H        -2.8576424889        0.9809230328        5.1142599460
 H        -2.6088254353        2.8441990195        1.4225044341
 H        -2.9690282218        1.4278273233        0.3873693878
 H        -0.5397100148        6.1104843368        1.0617631380
 H        -0.9962271558        4.5680730427        1.9101332227
 H         0.7334600928        2.5742920214       -1.9929383706
 H        -0.1361363808        3.7540745245       -2.7263613303
 H        -0.8977841164        2.2007212887       -2.3868384634
 H        -2.6238739504        3.4871035331       -1.1922498314
 H        -2.3568334759        4.4454104760        0.3104669346
 H        -1.8192939695        5.0875836527       -1.2700924230
 H         1.8437286744        5.5444548977        1.9790308934
 H         0.6379951218        6.4135941538        2.9098236990
 H         3.8358006055        2.2110673818        5.7553335952
 H         2.4687708264        1.7790720952        4.7282309473
 H         3.2371023974        6.5003624267        4.0837517636
 H         3.3095951838        5.8975524555        5.7148439202
 H         1.8604885375        6.6415771897        5.0817840971
 H         0.7770714985        4.8715246828        6.3993883080
 H         0.7795796038        3.1773536148        5.6984966186
 H         2.1804190442        3.8410120711        6.6541447849
 H         4.5280752956        0.3761400780        4.2072256106
 H         5.4484079616        1.7536504646        4.1167261633
 H         6.3625455765        2.4432431643       -1.0928215585
 H         7.1135876016        0.8891125511       -0.8044144506
 H         5.3793335768        3.7192390405       -0.1534755583
 H         5.0761073853        4.2835643065        1.5965578601
 H         3.8724345864        3.5664003081        0.3704418395
 H         7.2007782242        2.6734497514        1.0161947566
 H         6.6519170419        3.1656516530        2.6351688672
 H         7.0851849713        1.4886727043        2.3558384042
 H         6.2967194170        1.4457684707       -3.1893258160
 H         5.9079935870       -0.1059847001       -2.4384788762
 H         2.0308894599       -2.1290126957       -4.4214373430
 H         2.6930753259       -3.0482356006       -3.0275333449
 H         1.4411079893        0.6194260424       -4.0764205550
 H         2.5587237194        0.3781878558       -5.5415939293
 H         2.7616104411        1.8752367915       -4.5724268437
 H         4.0578230719       -1.7022348554       -4.9229447065
 H         5.0233030227       -0.1930801097       -5.1301502521
 H         5.2186227436       -1.1434242691       -3.6620794854
 H         0.7033200523       -2.2123893120       -1.7019135694
 H         0.4001001345       -3.5281832960       -2.7896573329
 H        -3.1002488679       -0.1421742632       -6.0725953491
 H        -2.7736205122       -1.8697839108       -6.2061404836
 H        -1.1316815240       -3.0525171845       -5.6278134984
 H        -2.6812921754       -3.9018354703       -5.0379611580
 H        -1.1112184052       -4.2085733604       -4.3481053359
 H        -2.0159933013       -2.1025262375       -1.5814897022
 H        -3.3095191117       -2.7105512832       -2.1665373923
 H        -1.9996904943       -3.8422458930       -1.9610439150
 H        -5.3586815732       -2.1572717744       -5.7723562749
 H        -5.1636988449       -1.1470575909       -4.4575421853
 H        -9.6320181825       -0.9044982157       -7.4679933849
 H        -8.4592553141       -1.1041467815       -8.8468660777
 H        -9.1903375532       -2.4838357482       -7.8853308042
 H        -7.7212661529        0.8750792232       -4.5673373694
 H        -7.2857589609       -0.7802993874       -4.3470044521
 H        -8.8619876225       -0.4253028380       -4.9684280327
 H        -8.7307301299        1.1776784344       -7.1569633571
 H        -7.4045771292        2.0669185819       -6.5670967049
 H        -7.3020268759        1.2040824392       -8.1440990995
 Na        2.2406666632        1.5615993392       -0.3065078760
