155

 C         4.3575546267        3.6312504786       -5.5710500314
 C         3.3579213403        3.0769285148       -4.5615095200
 C         3.4032205956        3.8238109041       -3.1350592924
 C         2.5743512265        2.8699604618       -1.9317485990
 C         0.9955781182        3.0255521732       -1.8400932634
 C         4.8822590651        3.8333841544       -2.5853089482
 C         2.5555197253        5.1785483331       -3.3618376285
 O         2.5419546353        2.2006210956       -4.7744311508
 O         3.1746337223        1.9117594918       -1.4666061325
 C         0.5515447748        2.5853182861       -0.4014885616
 C         1.0954492069        3.6781576793        0.5113853105
 C         0.9396674855        3.4709242829        2.0203036182
 C         2.2073331311        2.4172012360        2.1770204650
 C         3.5962670752        2.9450032864        1.9346520747
 O         1.6218574607        4.6889281859        0.0774654564
 O         2.0166789965        1.2146964159        2.4230569654
 C         1.1598561806        4.8144533524        2.7450254281
 C        -0.4330374495        2.8967726239        2.4461557163
 C         4.6973039934        2.0877531191        1.3296824481
 C         5.8376101529        1.9310758478        2.2686275752
 C         7.3806174383        2.0643913494        1.8890329459
 C         8.1149589729        0.8731165703        2.6823410226
 C         8.1354712497        1.1257760838        4.2951025654
 C         7.5743907347        2.0835588221        0.3848320924
 C         7.8065449613        3.4316306628        2.4562244838
 O         5.4529741728        1.7520849132        3.4351231282
 O         8.3741684328       -0.1706028043        2.1370357273
 C         8.0434801172       -0.2029716494        5.2151387193
 C         6.6080207406       -0.8572931151        5.0256682722
 C         6.5220073506       -2.4006778480        4.4620396462
 C         5.3338624878       -2.3487397359        3.5229479035
 C         4.1420359484       -3.3826880349        3.8065235421
 O         5.6519366874       -0.4639199619        5.5957318907
 O         5.2436465193       -1.4814233257        2.6428489328
 C         7.7890429927       -2.6925065829        3.5357429030
 C         6.2739575089       -3.3177266107        5.7220149486
 C         2.9178134031       -3.3217357937        2.8141839463
 C         1.5310107235       -2.9689096433        3.5196243919
 C         0.2089307239       -3.7954491879        3.6882465111
 C        -1.1324831910       -3.3327521371        2.8288518556
 C        -0.9696752409       -2.4903407967        1.4943504980
 C         0.2590919831       -5.4113806237        3.3117430048
 C        -0.1217961235       -3.6679280103        5.2123362573
 O         1.4891613171       -1.8757816248        4.0551699016
 O        -2.2058427988       -3.5093054254        3.2688666018
 C        -1.2001226845       -3.1768645123        0.1058920107
 C        -2.6184780157       -3.1757830032       -0.3853638503
 C        -3.3108219111       -4.3628485635       -1.2740046718
 C        -3.9991385160       -3.7523415188       -2.5148017441
 C        -4.8795467917       -2.4409673287       -2.3012320746
 O        -3.2802379285       -2.2431618102       -0.1030614715
 O        -3.8992514237       -4.2788705013       -3.6447748710
 C        -2.3344470150       -5.5890213164       -1.7423359994
 C        -4.3330684985       -4.9570508124       -0.1673613241
 C        -5.6298976644       -2.0762314768       -3.5473108319
 C        -7.0260275438       -2.6430567670       -3.8841043337
 C        -7.7419403644       -2.1574850581       -5.2389859768
 C        -7.4920868895       -0.5244533187       -5.3356450690
 C        -8.5527427802        0.4000605522       -4.7345681803
 C        -7.0693758907       -2.8458873443       -6.4924997199
 C        -9.2215642407       -2.4443649885       -4.9704684170
 O        -7.6489669769       -3.3459285425       -3.0687444430
 O        -6.5862433585       -0.0679941742       -6.0648324965
 C        -8.2075085619        1.8451706151       -4.8608784091
 C        -9.2813661238        2.7880004784       -4.9307870374
 C       -10.1253806164        3.0982389244       -3.7105392401
 C       -10.2706066854        2.0030721046       -2.5502504511
 C       -11.6427541977        1.3011271553       -2.1878015266
 O        -9.7676159532        3.1606691372       -5.9715494292
 O        -9.2094339467        1.4925328957       -2.2664799931
 C        -9.3534573301        4.2575797482       -3.0277016924
 C       -11.5513522331        3.5479668403       -4.2226436202
 H         5.4682268143        3.4388878897       -5.5066772801
 H         4.0141066651        3.3957503011       -6.5526567773
 H         4.3974418097        4.7534675947       -5.5254560203
 H         0.5359262113        3.9179456854       -2.1041747938
 H         0.8072376902        2.2853172464       -2.6198459918
 H         5.2332652537        2.9527623584       -2.1827496958
 H         4.9632461404        4.7366669909       -1.9152150057
 H         5.5624769938        4.3654691116       -3.2689566901
 H         1.5390621560        4.8156697360       -3.6746779917
 H         2.4608067396        5.7639795886       -2.3986942998
 H         3.0337920330        5.7909717008       -4.1714978544
 H        -0.3922812861        2.1561854661       -0.2784068271
 H         1.1094358813        1.6713177188       -0.1166836808
 H         3.2406946456        3.7689524386        1.2869831737
 H         3.7544384683        3.3689640536        2.9786070186
 H         2.1912358716        4.8318283250        3.2566039994
 H         0.4959127680        5.0073053705        3.6299047814
 H         1.2901061011        5.7922420346        2.2275917171
 H        -0.3334865982        2.7287606191        3.5308200381
 H        -1.3484916456        3.4187641378        2.2124278383
 H        -0.4953421362        1.8320588935        2.1988893411
 H         4.9724355289        2.5010487534        0.4338922957
 H         4.3857172472        1.0394360895        1.2051414954
 H         9.0357099767        1.6310829465        4.6658620146
 H         7.2952958652        1.7737297886        4.5385788828
 H         7.4271012427        1.1723927900       -0.0653267705
 H         8.6830282161        2.1837991223        0.0504409396
 H         7.0102018391        2.8740744540       -0.1828446025
 H         8.9422858149        3.4380854364        2.4788357508
 H         7.4734685982        4.2595577999        1.8117529588
 H         7.4269585449        3.6067280099        3.4563667418
 H         8.8776604726       -0.8991630826        5.1784110950
 H         7.8768816619       -0.0011358958        6.2018926705
 H         4.4569532291       -4.4597500652        4.1983885424
 H         3.8735472448       -2.9700323989        4.7233287539
 H         7.6269110242       -3.6325347422        3.1050441916
 H         8.7732276273       -2.7577805708        4.1707711389
 H         8.0439647219       -1.9316044179        2.7898520919
 H         5.5982147066       -2.7522591722        6.2963577151
 H         6.0763071430       -4.2410463345        5.3136181253
 H         7.2027492873       -3.3086585388        6.3775940348
 H         2.9837238599       -4.3856062768        2.4533982244
 H         3.2039608324       -2.4950917966        2.1035254190
 H        -1.6049849624       -1.6135251277        1.7052276163
 H         0.0651821555       -2.0775030884        1.4022832884
 H         1.0298200987       -5.6575400323        2.4240098260
 H        -0.7849818917       -5.7942286564        3.0574679131
 H         0.6369293314       -5.8517188092        4.2281502969
 H         0.7890662925       -3.5501616867        5.7777916904
 H        -0.7071459094       -2.8428085326        5.6780891362
 H        -0.5977133539       -4.5980186079        5.4894138894
 H        -0.8761700428       -2.5335463467       -0.7171754824
 H        -0.5768732365       -4.0140472043       -0.0476396405
 H        -5.3958825968       -2.5442009313       -1.2812325271
 H        -4.2203510339       -1.5652112136       -2.1798663233
 H        -1.4458187023       -5.1439487022       -2.3472336358
 H        -2.7492343752       -6.3056557783       -2.4613915948
 H        -1.8672598923       -6.0783584548       -0.8851950978
 H        -4.7008858490       -5.9473696688       -0.5618464670
 H        -3.9012879415       -5.1024597285        0.8280059772
 H        -5.2985038867       -4.3166903506       -0.1856600944
 H        -5.0777710288       -2.3147120410       -4.5136144036
 H        -5.8295403107       -0.9449117047       -3.4448770074
 H        -9.4776351690        0.0617460228       -5.3119339462
 H        -8.6675344974        0.0223825172       -3.7213219029
 H        -6.0206733959       -3.1798116737       -6.2719221603
 H        -7.0335607205       -2.0393468073       -7.3219741311
 H        -7.4861680326       -3.7230834573       -6.8743279433
 H        -9.8786942939       -2.3032424476       -5.8017838944
 H        -9.5328301922       -3.3419938275       -4.6000204301
 H        -9.5494250759       -1.8136602289       -4.2077065485
 H        -7.5045502008        2.0892504034       -3.9787980745
 H        -7.6727262933        1.9654515557       -5.8509265677
 H       -12.3829818417        1.7332518182       -2.7896122074
 H       -11.6080788319        0.2787633661       -2.2154295613
 H       -12.0820915531        1.4863450881       -1.2782390014
 H        -9.9572255851        4.7995797630       -2.3235556442
 H        -8.8525780554        4.9584031482       -3.6495190483
 H        -8.5456896266        3.8741475959       -2.3501422098
 H       -12.3659946418        3.5738193783       -3.5528726354
 H       -11.4928728797        4.5534320996       -4.5533146859
 H       -11.9146265776        2.7711726955       -4.9905048911
 Na        3.3860617223       -0.0558331370        3.7220539875
