155

 C         4.3253263498        3.1220662935       -5.6889439952
 C         3.3803353324        2.6508498317       -4.4662361336
 C         3.6652528486        3.4534444253       -3.0937743582
 C         2.5044454091        3.0479976891       -2.0428454005
 C         0.9806560645        3.2953196955       -2.2480145849
 C         4.9627064692        2.7295646057       -2.7336040010
 C         3.6341784939        4.9681398587       -3.2528717112
 O         2.8781185278        1.5445031921       -4.5712595207
 O         2.9231696748        2.2266464708       -1.2605300757
 C         0.2446584610        3.3192384944       -0.9605714462
 C         1.0490705623        4.0993360957        0.0889656043
 C         1.1564834203        3.4866846184        1.5926965072
 C         2.5344938487        2.6474422928        1.7707464019
 C         3.9403698415        3.3523207042        1.2868726296
 O         1.5424942042        5.1485870108       -0.2551405490
 O         2.5603582763        1.5711290327        2.3327375610
 C         1.1308174688        4.7606846550        2.5491039435
 C        -0.0655426775        2.5591511625        1.9420514077
 C         4.9929720119        2.1820462679        0.9830509484
 C         5.8875980500        1.9557569855        2.2145790197
 C         7.5599876175        2.2863028764        2.1158272556
 C         8.3518769770        1.0862864782        2.9331146420
 C         8.0998724704        0.8186050097        4.5477651073
 C         7.9811422518        2.4589725257        0.6393418565
 C         8.0330405681        3.6106126396        2.7867269683
 O         5.4981868433        1.4216137816        3.1906591338
 O         9.2125586394        0.4656934725        2.3876800387
 C         7.9953946063       -0.5866726370        5.1443015212
 C         6.6800909182       -1.4591134028        4.6823183528
 C         6.6096296092       -2.9549186591        3.8844873184
 C         5.2924403333       -2.7224773784        2.9674745722
 C         4.2614578976       -3.8348654290        2.7581461500
 O         5.5878383088       -1.1150936234        5.0669701649
 O         5.3248130654       -1.6541328464        2.3801229682
 C         7.8520826423       -2.9662180280        3.0569046771
 C         6.2041755918       -4.0814666183        4.9870808075
 C         2.9874878934       -3.4339588054        2.0384552631
 C         1.8713429798       -2.7492075777        3.0525025051
 C         0.6700175723       -3.5261078251        3.5954154716
 C        -0.6855817830       -2.8574962738        2.8922968581
 C        -0.9276205759       -2.5823223206        1.3799105947
 C         0.6332989270       -5.0547686310        3.4337947728
 C         0.4430363475       -3.1787655195        5.1017995439
 O         2.0901757953       -1.6431238595        3.5110722811
 O        -1.5574825825       -2.4385708479        3.6415257480
 C        -1.5446876001       -3.6795695130        0.4221226393
 C        -2.6910889089       -3.2002305250       -0.4573386880
 C        -3.8086359328       -4.2100907630       -0.8629494006
 C        -4.7566865953       -3.7821334538       -2.1960176471
 C        -5.6963686350       -2.5322267500       -2.0816195112
 O        -2.6945346131       -2.0250910037       -0.9164753694
 O        -4.6186383216       -4.5008722880       -3.1166801550
 C        -3.1384962358       -5.6981201438       -1.2122593864
 C        -4.7595948180       -4.4290453358        0.3923194516
 C        -6.3593430621       -2.1667997256       -3.4564740297
 C        -7.7723403931       -2.7818626572       -3.7739692181
 C        -8.3240572813       -2.4403557858       -5.2539618273
 C        -8.3460213535       -0.8604612282       -5.2966219225
 C        -9.6238156150       -0.1946553559       -4.6633123553
 C        -7.4510876315       -3.2530389966       -6.3538208834
 C        -9.7267006305       -3.0777719300       -5.2368905897
 O        -8.3000835730       -3.3486298664       -2.9198002901
 O        -7.3533036418       -0.3096941792       -5.7754821294
 C        -9.0430891955        1.1051960118       -3.8935564668
 C        -9.6803161232        2.5110622267       -4.2449574176
 C        -9.9732755190        3.5717717970       -3.0780271168
 C       -10.0047700592        2.7575581267       -1.7734032614
 C       -11.3522634614        2.0792487013       -1.3977097840
 O        -9.9696524676        2.9121333703       -5.3584459925
 O        -9.1177502782        2.7325804760       -0.9548289156
 C        -8.6962597338        4.5200086393       -2.9678065370
 C       -11.2102091727        4.4871285216       -3.4938480743
 H         5.0208073535        2.3559187766       -6.1027934608
 H         3.7308111445        3.3068571975       -6.6448916500
 H         4.7463791202        4.1053993811       -5.4463059447
 H         0.8889499562        4.3084056100       -2.7764151437
 H         0.7014947436        2.5346482963       -3.0475595869
 H         4.9738666846        1.7440238925       -2.1745020952
 H         5.5025171733        3.2955514214       -1.9791212102
 H         5.4205286849        2.5981529192       -3.6777397857
 H         2.6590387942        5.3361362769       -3.6168936560
 H         3.7792784960        5.4015553653       -2.2792631720
 H         4.3990408873        5.3542839299       -3.9173280667
 H        -0.6409302504        3.9823116855       -1.2422221235
 H        -0.1801111072        2.3701006970       -0.7130205533
 H         3.7998100845        4.0932219861        0.4966097336
 H         4.2835930017        3.9306557202        2.1567992197
 H         0.2134228872        5.0115642418        3.0656062685
 H         1.4426420983        5.6777824911        2.1986388913
 H         1.7999258497        4.6876337753        3.3924398510
 H        -0.1521006102        2.4004887101        2.9996685913
 H        -1.0945240439        2.8953358189        1.6564625422
 H         0.0797805247        1.6362200412        1.2758675087
 H         5.4542939619        2.7656016659        0.1643384426
 H         4.4039246347        1.3733550086        0.7139804849
 H         8.9367158618        1.2261931634        5.0893452037
 H         7.2747143197        1.4461622801        4.7665699975
 H         7.8693646773        1.5149026630       -0.0317750123
 H         8.9420998849        2.8673814417        0.6211000756
 H         7.3152985717        3.1568783535        0.0909027387
 H         9.0777198061        3.5955238805        2.8822623900
 H         7.7169564443        4.4475236750        2.1809957791
 H         7.4903523080        3.6244144237        3.7581703814
 H         8.8963001707       -1.0284514617        4.7019440549
 H         7.9792291010       -0.5665159333        6.2971672775
 H         4.7886676605       -4.6677805957        2.1502670338
 H         4.0092817222       -4.1829961905        3.7641244142
 H         8.1099549351       -3.9470063310        2.7047756378
 H         8.6836762901       -2.7713010793        3.6969238617
 H         7.7177983199       -2.3164216596        2.2146124568
 H         5.1750355852       -3.8852877243        5.2735214993
 H         6.1379725321       -5.1109115126        4.5024894572
 H         6.9288452107       -3.9943522970        5.7588468680
 H         2.4340591523       -4.1027749121        1.4561167031
 H         3.2955680611       -2.6850982370        1.2050921078
 H        -1.6627268719       -1.7736079283        1.5159274681
 H        -0.0066354985       -2.0736643860        1.0746491768
 H         0.4007397549       -5.3156576736        2.4692481079
 H         0.0110896269       -5.4723371333        4.2266221572
 H         1.6643531170       -5.3340059965        3.7100102933
 H        -0.4024361460       -2.5706695976        5.2806274348
 H         0.2281117028       -4.0032363354        5.7463656137
 H         1.3393520317       -2.6745567168        5.5980754365
 H        -0.7358550314       -3.8605109087       -0.4055999603
 H        -1.6920639155       -4.6917627109        0.8421756972
 H        -6.4439359375       -2.7387293204       -1.3355926635
 H        -5.1787080672       -1.6373388721       -1.7605736126
 H        -2.4661528340       -5.5536714540       -2.0498562231
 H        -3.8130782007       -6.4873707256       -1.5063750684
 H        -2.5556493628       -6.1436422243       -0.4609241103
 H        -5.5684809695       -5.0267594401       -0.0418211619
 H        -4.4935024461       -4.9083148270        1.3547459929
 H        -5.2182440683       -3.5503042251        0.6393837828
 H        -5.5883716452       -2.1837771577       -4.3503321477
 H        -6.4304625264       -1.1196492045       -3.3881197973
 H       -10.5192183578        0.0566789944       -5.3600478109
 H       -10.0272433833       -0.8921098011       -4.0159625102
 H        -6.8787615139       -2.6048157412       -7.0421053694
 H        -8.0233083574       -3.8861931557       -6.9199145575
 H        -6.7957794124       -3.9902951945       -5.8086445278
 H       -10.4670012365       -2.9028241304       -5.9912621287
 H        -9.6093076528       -4.1706693104       -5.0747077024
 H       -10.1856151441       -2.5915375878       -4.3873196597
 H        -9.3137580401        0.9246288383       -2.9212118434
 H        -7.9459211674        1.1050230856       -3.9747132649
 H       -11.7402859430        2.8664736032       -0.6754256658
 H       -12.2160504936        2.0800232133       -2.1337602957
 H       -11.3995113728        1.0117669217       -0.9798641925
 H        -8.7834156790        5.1919821984       -2.1637200671
 H        -8.4198520657        5.1948093933       -3.8056377122
 H        -7.7947088400        3.8271313814       -2.8153325313
 H       -11.4854753279        5.2578409872       -2.7804141610
 H       -11.0190374162        4.9645229332       -4.4790316526
 H       -12.0936451898        3.9455597888       -3.8302510429
 Na        3.8780603082       -0.0647123911        3.5439945489
