155

 C         4.1060314568        3.0733671161       -6.0679096326
 C         3.4936734230        2.4738352988       -4.8064199941
 C         3.7791550832        3.1597453515       -3.2640527259
 C         2.6587525723        2.8278172205       -2.2341964764
 C         1.2013554927        3.4456369376       -2.4409884410
 C         5.2046273777        2.8987701087       -2.8136159148
 C         3.7196928787        4.6691954933       -3.5343039121
 O         2.6773764377        1.5787565687       -4.8029365405
 O         2.8589993801        2.0907347037       -1.3007879192
 C         0.4457244423        3.4558574334       -1.0214591331
 C         1.2339475946        4.0279357774        0.0994537587
 C         1.2108218254        3.4079741771        1.6035721846
 C         2.5069906799        2.5415570317        1.7400528280
 C         3.8262045645        3.2379946108        1.3157112392
 O         1.8856259622        5.0678689939        0.0240684902
 O         2.3131593090        1.4813686298        2.3027187503
 C         1.5037887655        4.5003650868        2.6355770614
 C        -0.0191543744        2.6224035612        2.0818559852
 C         5.1946957742        2.5107023487        1.1041962793
 C         5.9981707218        2.1990144792        2.3674981784
 C         7.6181167662        2.3304871840        2.3009021380
 C         8.1662742820        1.0127038720        3.0566728847
 C         7.7438564951        0.7019668074        4.5904321483
 C         8.2402705970        2.2214391959        0.8086975085
 C         7.9532877873        3.6004016800        3.2018115404
 O         5.4700417689        1.8595826161        3.4709664298
 O         8.9720428853        0.3857154688        2.4326550703
 C         7.9611448814       -0.8542412481        4.7365026667
 C         6.5298477404       -1.3447884297        4.6156306452
 C         6.4582596528       -2.7949331672        3.6168510123
 C         5.3156055552       -2.6582536493        2.6858858821
 C         4.4121996460       -3.9184062849        2.4390231609
 O         5.5535197159       -0.9008294190        5.1701104015
 O         5.1273174436       -1.5886437052        2.1182031132
 C         7.7789146447       -3.2518155423        2.7866141288
 C         6.4829518820       -3.9441073110        4.6689678339
 C         3.0156667436       -3.3734964805        2.0215751452
 C         1.9792353424       -2.6985495685        2.9938507309
 C         0.6429675138       -3.2644019225        3.4547578848
 C        -0.6317748596       -2.6530231981        2.8523178902
 C        -0.9299800233       -2.6551793201        1.2124320435
 C         0.5284294806       -4.8192143814        3.1794810967
 C         0.6898259855       -3.1906924805        4.9636516094
 O         2.1103406717       -1.5506286528        3.3610889854
 O        -1.6296308844       -2.2503911989        3.4352102745
 C        -1.8875220032       -3.7174580434        0.7270529170
 C        -2.8257243595       -3.3044718695       -0.5054747176
 C        -3.9127997404       -4.3516166945       -0.7701637495
 C        -4.6767199557       -3.8417407889       -2.1136014971
 C        -5.6932061475       -2.6683040726       -1.9485176955
 O        -2.7310860822       -2.2892697378       -1.1207662312
 O        -4.4819923985       -4.2772504968       -3.2462006424
 C        -3.5336880935       -5.8369171065       -1.0010678944
 C        -5.0073350674       -4.1171581720        0.4197574055
 C        -6.2979420665       -2.2922989161       -3.2990347192
 C        -7.6892595680       -2.7963685345       -3.5032329724
 C        -8.3583566974       -2.4772774974       -4.8943411327
 C        -8.4172453360       -0.8916941282       -5.0764113301
 C        -9.6036627128       -0.0650698245       -4.5881048398
 C        -7.3307695087       -3.0087982942       -6.0383901194
 C        -9.6420234762       -3.2733943165       -5.0694729309
 O        -8.3153917519       -3.2864837602       -2.4767293234
 O        -7.4849448040       -0.4868255545       -5.6994043116
 C        -9.3903519014        1.0311276861       -3.6208079884
 C        -9.8560054153        2.4647979830       -4.0593687983
 C        -9.7818154043        3.7249835894       -2.9870416694
 C        -9.9343031051        2.8943210287       -1.6762678423
 C       -11.3165233325        2.2965624438       -1.2951576825
 O       -10.3314212635        2.6535401345       -5.1529362067
 O        -9.1064530847        2.9040080131       -0.7743600291
 C        -8.3842364692        4.4089583565       -3.1188757335
 C       -11.0256297280        4.6988643270       -3.1775419335
 H         4.5597944857        2.2285757212       -6.6086810712
 H         3.4188032661        3.3674980562       -6.8125378078
 H         4.7100458252        3.9640888232       -5.8302533682
 H         1.4197759785        4.3942370757       -2.8019864924
 H         0.5755081311        3.0601949019       -3.1998815383
 H         5.2867623853        1.9130426169       -2.6032063243
 H         5.4261639704        3.2568107713       -1.7987112340
 H         5.9162210813        3.1015025660       -3.6466496166
 H         3.2208007901        4.9667182804       -4.4502191634
 H         3.1694072002        5.2704098599       -2.7904744320
 H         4.7336601750        5.0131622355       -3.6716156091
 H        -0.2940341280        4.2002381864       -1.1546778689
 H         0.0492903351        2.3829884645       -0.8864160706
 H         3.4497484926        3.8097018570        0.4573356800
 H         3.9599746854        4.0679206333        2.0657272582
 H         0.6492630843        4.9104977249        3.2375874271
 H         1.7256636488        5.5170776088        2.1751704273
 H         2.2045628575        4.4013567115        3.4252001708
 H         0.1153252741        2.4859789506        3.1540925926
 H        -0.8057692581        3.3473629144        2.1035906189
 H        -0.3712419678        1.8687002697        1.4548658747
 H         5.6708725364        3.1162602933        0.3947388104
 H         4.6617562891        1.5507125900        0.7044909830
 H         8.4897349234        1.1792639883        5.2348817194
 H         6.7468721016        1.0428711062        4.9352305979
 H         7.6572292967        1.5367162590        0.3225532129
 H         9.3092458155        1.7878115522        0.9744774197
 H         8.1827426284        3.0395195430        0.0911289766
 H         9.0495895315        3.5294216782        3.3018046240
 H         7.6968790070        4.5322194015        2.7678907050
 H         7.5080327349        3.4210332573        4.1133843081
 H         8.7567889745       -1.1182994608        4.0373739054
 H         8.2443009090       -1.0553191292        5.6971080396
 H         4.8361328539       -4.4206623515        1.5344338522
 H         4.3493348862       -4.6021174533        3.2309283164
 H         7.6148058335       -3.5349446817        1.7587409927
 H         8.3044909818       -4.1548012233        3.2560190027
 H         8.4514702301       -2.3906031888        2.7609941646
 H         5.6665083151       -3.9528063297        5.3710967596
 H         6.4068832878       -4.8422742892        4.1286326824
 H         7.5780606905       -4.0018667853        4.9814517249
 H         2.3307245934       -4.1174004078        1.4855020268
 H         3.1023518852       -2.7553857467        1.1814336292
 H        -1.2804534098       -1.6428548191        1.0764858188
 H         0.0942893893       -2.7811397952        0.7967432436
 H         1.3174661249       -4.8959512551        2.3488288434
 H        -0.5098798830       -4.9589523256        2.7941041883
 H         0.7079722461       -5.4996747106        4.0008220212
 H         1.0863548512       -2.2136990417        5.2882687165
 H        -0.2671790787       -3.2992701712        5.4966144834
 H         1.2717552892       -3.9255199199        5.4137790943
 H        -1.2909135594       -4.4593783347        0.2962116408
 H        -2.4872811317       -4.1648727046        1.5331005436
 H        -6.4844354340       -3.0540651807       -1.2631281149
 H        -5.2690642170       -1.7385293075       -1.5333916884
 H        -3.2777772704       -6.0927441923       -2.0635320954
 H        -4.4651681009       -6.3946711759       -0.9061379125
 H        -2.8486128026       -6.3390397827       -0.2881139692
 H        -6.0412245962       -4.5281046834        0.2236694817
 H        -4.7043213699       -4.8163423763        1.2153503345
 H        -5.0511047419       -3.0883242780        0.9475298486
 H        -5.6838982225       -2.6386037310       -4.0402059808
 H        -6.1763268047       -1.1519961427       -3.5076861025
 H       -10.0595089385        0.3148117777       -5.4491111283
 H       -10.3813761845       -0.8166025782       -4.1858051919
 H        -6.3998952814       -2.4337068891       -5.9147077342
 H        -7.6208101705       -3.0125887439       -7.1742586037
 H        -7.2264825446       -4.0242414780       -5.8638813129
 H       -10.1884496014       -3.1060208735       -5.9753382923
 H        -9.2837705546       -4.2986145709       -5.1653021182
 H       -10.2476909353       -3.2203003677       -4.1995057955
 H        -9.6999139706        0.5894512306       -2.5843701849
 H        -8.2697229529        1.1617305060       -3.6106141739
 H       -11.9697479299        2.9904548304       -0.8353010721
 H       -11.9933231825        1.7664841237       -1.9300608614
 H       -11.0035788301        1.6266734511       -0.5456716282
 H        -8.4914796217        5.5255842418       -3.0763835772
 H        -7.8750676273        4.2857260533       -4.0568662119
 H        -7.7670699741        4.1185553367       -2.3088974354
 H       -10.8725914913        5.6429217580       -2.6460658751
 H       -11.3810062914        4.9645230392       -4.1278104583
 H       -11.9175568230        4.1635896790       -2.7737719117
 Na        3.9090412348       -0.1179574136        3.1436650681
