155

 C         4.0789818221        2.8771729263       -6.2197401430
 C         3.3094832411        2.4445268369       -4.8536658452
 C         3.6611482333        3.1893516564       -3.4946872099
 C         2.7564428858        2.7766079592       -2.3963241030
 C         1.3901756854        3.5391202722       -2.2711141670
 C         5.0738965518        2.7241424417       -2.9793122177
 C         3.8431683812        4.7346633382       -3.7823794725
 O         2.5206036063        1.5595417902       -4.7870693689
 O         3.1175802828        1.9796737536       -1.5265990612
 C         0.6812210901        3.2238754915       -0.9313244413
 C         1.5012931512        4.0532204329        0.1994262984
 C         1.4185355503        3.4613719350        1.6706049891
 C         2.6159542565        2.5360831445        1.7474037655
 C         3.9713723908        3.3018583658        1.4602340307
 O         2.1356365890        5.0494889040       -0.0364828282
 O         2.5305027484        1.3285703636        1.9378452348
 C         1.5423179191        4.5759066679        2.6913631855
 C         0.0276773646        2.7249732082        1.7688859261
 C         5.2099193031        2.3602288591        1.2092629698
 C         5.9447938023        2.2179327107        2.5063969462
 C         7.5318753888        2.2448360017        2.5438135795
 C         8.1001609070        0.8467974609        3.1758132758
 C         7.9408563606        0.6671374107        4.6868930907
 C         8.1097778922        2.5065521959        1.1048783788
 C         7.9624078208        3.5832836078        3.4335031654
 O         5.2962160073        2.1976148495        3.5222503635
 O         8.6759079744        0.0168759563        2.4633270985
 C         7.8741300322       -0.8514770823        4.9984911372
 C         6.6087979053       -1.5786205441        4.2219345097
 C         6.4434774225       -2.8575196138        3.4408649802
 C         5.1063023802       -2.6335704235        2.5772797277
 C         4.0081218397       -3.6767736400        2.4292768115
 O         5.5114576064       -1.0540726297        4.4734770296
 O         5.1974612725       -1.6745561617        1.8162740926
 C         7.6371110340       -2.9391880551        2.4435211494
 C         6.2879779546       -3.8775485878        4.5662773955
 C         2.8108099557       -3.2839015396        1.5932941304
 C         1.9079334597       -2.6671046016        2.7045293253
 C         0.6051490021       -3.3007046731        3.2180415013
 C        -0.5860313591       -2.6394126670        2.5787801261
 C        -0.8530790381       -2.8890733074        1.1807928334
 C         0.4501697249       -4.8032119240        2.8631581107
 C         0.5324660952       -3.1187785031        4.7772633739
 O         2.3773072946       -1.6541243581        3.2178180627
 O        -1.3775138129       -2.0853679002        3.2759003915
 C        -2.2439417211       -3.6444157065        1.0668349768
 C        -2.8187099150       -3.4574099073       -0.2968678812
 C        -4.0724373325       -4.4130890646       -0.5001811499
 C        -4.5962223459       -3.8427139063       -2.0394181308
 C        -5.5657702455       -2.6481039361       -1.8176098792
 O        -2.4402252586       -2.6031270170       -1.0797813662
 O        -4.2181678840       -4.2025090228       -3.0737544198
 C        -3.8305464091       -5.8277604455       -0.7234502891
 C        -5.0834179835       -4.2024109956        0.6133524082
 C        -6.2748257500       -2.1574880405       -3.1452194105
 C        -7.7120689187       -2.6963267367       -3.2829978984
 C        -8.3868386074       -2.4064846148       -4.8779118847
 C        -8.4980933900       -0.9555502064       -4.9422031457
 C        -9.8227002028       -0.2050663640       -4.6110793297
 C        -7.3659141441       -3.0267028951       -5.8493618859
 C        -9.7373708588       -3.2113701597       -4.8772648365
 O        -8.3659762190       -3.0914808742       -2.4040702417
 O        -7.5597721100       -0.2781042091       -5.3910502631
 C        -9.2881209127        1.0788772768       -3.6595904192
 C       -10.1752702336        2.3056970836       -3.7938670051
 C        -9.7540239493        3.5181104010       -2.8950269630
 C        -9.9097370234        3.1177716949       -1.3657848835
 C       -11.2462419558        2.5951887250       -0.9781219695
 O       -10.7451444583        2.4673357631       -4.8376616381
 O        -8.9867148823        3.1731812352       -0.5719213705
 C        -8.2636400625        3.9851310677       -3.1888382528
 C       -10.7199648087        4.6531350564       -3.2312746440
 H         4.0737681612        2.0702094684       -6.8587988163
 H         3.6041667487        3.7125905515       -6.7734030797
 H         5.0101970479        3.3737962407       -6.0752765808
 H         1.4795332994        4.6470883311       -2.5887652691
 H         0.7604068461        3.1392953344       -3.1180866704
 H         5.1543300290        1.5558578411       -3.1447182437
 H         5.2371430082        2.8124149048       -1.9132173211
 H         5.8551494101        3.2252663991       -3.5407020150
 H         2.8342816139        5.0998399207       -4.0744328840
 H         4.0673436078        5.3663702871       -2.9391873669
 H         4.4603821449        4.8917357481       -4.6861992279
 H        -0.4395789350        3.4432608039       -1.0331291967
 H         0.9947202405        2.2254129408       -0.8586104723
 H         3.6624760141        3.9847286750        0.6949882576
 H         4.2623634706        3.9817435758        2.2136106726
 H         0.8968722197        5.3630924712        2.5407696386
 H         2.3607751527        5.1537510497        2.8845105716
 H         1.2158341754        4.1637646179        3.6878567011
 H         0.0862363964        2.1732718925        2.6925761718
 H        -0.8357114294        3.4407803354        1.7957430128
 H        -0.1739864101        2.1405190454        0.8532397787
 H         5.8064687853        3.0141397634        0.5137260918
 H         4.9007396253        1.4840737094        0.7949699314
 H         8.5338182925        1.4338191569        5.2587712057
 H         6.8632974941        0.9228032271        4.8634826934
 H         7.8394198147        1.8503585127        0.2354344660
 H         9.1330254603        2.4894145454        1.2530083097
 H         7.7310312529        3.4535721066        0.7753697470
 H         9.0281722280        3.7090025315        3.2831289658
 H         7.4880335401        4.4341235842        2.8591685264
 H         7.6462540335        3.5572232310        4.5326649723
 H         8.7485869434       -1.2855218964        4.4651847147
 H         7.9535888373       -1.1170346225        6.1443340315
 H         4.4532706091       -4.4678727822        1.8258895480
 H         3.6958821337       -4.1360179768        3.4718145394
 H         7.1986678148       -2.6325134154        1.4400345585
 H         7.9621748301       -3.9196118929        2.3360138046
 H         8.5056559568       -2.2900836829        2.6230110644
 H         5.2861120822       -3.5352382447        4.9390333342
 H         6.2871566912       -5.0026666285        4.3505356806
 H         7.0913591742       -3.7666089987        5.2373200175
 H         2.3703534507       -3.8961633874        0.8882271343
 H         3.0280133311       -2.3933006733        0.9239753031
 H        -0.9782060221       -1.8531219661        0.8035203933
 H        -0.0669357882       -3.4618282885        0.7254975715
 H         1.2325425987       -5.1102412916        2.2463910599
 H        -0.4730633338       -4.9852073690        2.4670533792
 H         0.5755328648       -5.3551619321        3.7854204089
 H         1.5051115338       -2.7283988758        5.1168452013
 H        -0.2209812829       -2.4089483437        5.0949870847
 H         0.2298051185       -3.9769600693        5.4582767005
 H        -2.1607969169       -4.7709333793        1.2571888912
 H        -2.9633076335       -3.1369678952        1.7138799320
 H        -6.3374752112       -2.8345772299       -1.0617497589
 H        -4.8562417838       -1.8941092485       -1.4246055938
 H        -3.2438598326       -6.0650791170       -1.5621645687
 H        -4.6985327612       -6.5171937436       -0.8264744819
 H        -3.2941565072       -6.1294855803        0.1949621066
 H        -5.9121094200       -4.7725196287        0.4994341910
 H        -4.7199894426       -4.5438669350        1.5586692872
 H        -5.3062629207       -3.1661375530        0.7121804516
 H        -5.5239832828       -2.2028862705       -4.0141905628
 H        -6.5164344830       -1.1394636229       -3.1446371816
 H       -10.1190911003        0.1658377322       -5.6507741168
 H       -10.6021203544       -0.7748841292       -4.1952865397
 H        -6.4149222334       -2.5783177995       -5.7338584461
 H        -7.6853710203       -2.8973953422       -6.8122746364
 H        -7.4574502275       -4.1745922144       -5.7946159288
 H       -10.1800045933       -3.1680613811       -5.9449101081
 H        -9.5518038974       -4.3131708000       -4.7303855985
 H       -10.4660376468       -2.9006271539       -3.9951435022
 H        -9.1275239347        0.7381922166       -2.6901815738
 H        -8.3025968004        1.3991283502       -3.9469064879
 H       -11.8444108115        3.4547409791       -0.6715646239
 H       -11.8126282583        2.3532010737       -1.8800020622
 H       -11.3857610788        1.8041650795       -0.2180162899
 H        -8.2238010366        4.9863261375       -3.5872006833
 H        -7.7534336171        3.3339268304       -3.9541445816
 H        -7.7010785435        4.0392952935       -2.2060602421
 H       -10.4389991090        5.5638188193       -2.7013501286
 H       -10.5280628493        5.0576724340       -4.2696656536
 H       -11.7457380315        4.4490859643       -3.1778600038
 Na        4.1693536978        0.0913255705        3.0476136872
