155

 C         3.6015590905        2.1669479982       -6.9988675105
 C         3.0262838063        2.1212473082       -5.5425049732
 C         3.9911984970        2.9390704524       -4.5420223349
 C         3.2476750517        3.2026885476       -3.0908651295
 C         1.7414115270        3.3281080834       -2.8611504693
 C         5.2915680594        2.1702879205       -4.6357171394
 C         4.2385078212        4.4133935455       -5.2549625144
 O         1.9762466883        1.6034833569       -5.2485807578
 O         4.0904323472        3.1538721524       -2.1909772409
 C         1.2350479082        3.0017377562       -1.3881055402
 C         1.7772640878        4.1305741677       -0.2785279338
 C         1.7394842500        3.9207803702        1.3473603333
 C         3.1708621973        3.1660706576        1.7237121640
 C         4.4830056694        3.9662918759        1.7085986815
 O         1.9705683647        5.1952761699       -0.8127645176
 O         3.1170798877        1.9421570247        1.8542332240
 C         1.5326571755        5.3704012686        1.9565955570
 C         0.6000172438        2.9324002824        1.7293287801
 C         5.7893954748        3.1821952004        1.8980858858
 C         6.0027315571        2.3197576977        3.2006581135
 C         7.5146998555        2.2522874588        3.8126415858
 C         8.0405141524        0.7891871191        3.4548380665
 C         8.3255544728       -0.4187687658        4.3800079844
 C         8.4508100910        3.2040556758        3.1216861231
 C         7.5579464050        2.4259400168        5.2711439547
 O         5.0484206115        1.7402822921        3.6683602913
 O         8.4678542328        0.6508605946        2.2955442491
 C         7.9593920320       -1.8137834892        3.7442345974
 C         6.4753734941       -1.9938558114        3.3289752354
 C         6.1893325525       -3.3444092681        2.3178520347
 C         5.1702239911       -2.7273334484        1.4093706012
 C         3.7508667482       -3.2996429674        1.1236585990
 O         5.5081293008       -1.4937000045        3.8449438005
 O         5.3551985361       -1.5791792585        0.9685254007
 C         7.2993076595       -3.9864543258        1.5203473843
 C         5.5931737352       -4.3337200981        3.5132421800
 C         2.5554346549       -2.3254667967        1.0551289920
 C         2.1072159835       -2.2872683480        2.5694035262
 C         0.9549872827       -3.2197158378        3.2998301405
 C        -0.3853707535       -2.9001907536        2.4032918413
 C        -1.2656881925       -3.8549415848        1.6529596920
 C         1.3806727252       -4.6576284034        3.5119974215
 C         0.6434652218       -2.5133436580        4.6657799952
 O         2.8619748962       -1.7677881146        3.3222075880
 O        -0.8339506065       -1.7821390946        2.5699970003
 C        -2.4714151428       -3.2393628313        0.8980990281
 C        -3.1680920121       -4.0369281577       -0.1822634614
 C        -4.7764039475       -4.3776881164       -0.1116511658
 C        -5.3005379226       -3.8499397402       -1.4199013891
 C        -5.5934029576       -2.4186809419       -1.5712516739
 O        -2.3854800493       -4.4664729171       -1.0373741464
 O        -5.7466096621       -4.5875707825       -2.2464003523
 C        -4.9731912391       -5.9596694241       -0.1337215519
 C        -5.2833838716       -3.6865079968        1.2299719537
 C        -6.2262024353       -2.1218647579       -2.9195641448
 C        -7.6692077946       -2.7012094924       -2.9112102623
 C        -8.5437923695       -2.5549602658       -4.1764699570
 C        -8.7989451110       -1.0254107580       -4.6111287431
 C        -9.2349102817       -0.0838237933       -3.4754470389
 C        -7.9763899590       -3.4051917096       -5.3547537884
 C        -9.8026354154       -3.1786278464       -3.7965733264
 O        -8.0799092586       -3.0600638208       -1.8644146157
 O        -8.6291225437       -0.6417800282       -5.7545585120
 C        -8.9330774721        1.5002533850       -3.4195375395
 C        -9.9488019408        2.2019782702       -2.5198902068
 C        -9.8431127900        3.7839078420       -2.4334236031
 C        -9.7440805712        3.9891533385       -0.8232950309
 C       -10.7291597551        4.9303896973       -0.3187320413
 O       -10.9626998454        1.6090344263       -2.1753292007
 O        -9.0671368853        3.3725437500       -0.0290557482
 C        -8.5319605722        4.4073856930       -2.9968496558
 C       -11.0972971794        4.4899407290       -3.0281594140
 H         4.5371964790        2.5867281827       -7.2670308034
 H         3.7905352770        1.0819422507       -7.1888882169
 H         2.7426100587        2.5807097270       -7.5089358356
 H         1.3264734021        4.3137273093       -3.2900958759
 H         1.2735403818        2.4883800672       -3.4587338844
 H         5.1479247800        0.9833172721       -4.5474710915
 H         6.0212311194        2.4515710734       -3.8542789719
 H         5.7652150581        2.3624989556       -5.5672198828
 H         4.2579176277        4.5740528956       -6.3502865437
 H         3.3734619739        4.9632204873       -4.8766912422
 H         5.0901981326        5.0281104000       -4.8590111641
 H         0.1651596149        2.8866100450       -1.3164725200
 H         1.8538335553        2.0714811913       -1.2007106479
 H         4.3289681322        4.6177763260        0.8963598106
 H         4.4977268403        4.6277537456        2.5950547466
 H         1.8781682090        6.1782078174        1.3723729931
 H         1.9053038432        5.4821867720        2.9253770591
 H         0.4129095890        5.6817510374        2.0311172350
 H         0.0969711057        3.2528928128        2.6194075428
 H        -0.1770638210        2.9656671000        0.9670744618
 H         1.1593301386        1.9704739819        1.7988082047
 H         6.6008663780        3.9897049072        1.6868315879
 H         6.0602144493        2.5003735470        1.1515621228
 H         9.4407007978       -0.4390892000        4.4186617012
 H         8.0201315698       -0.2200638471        5.4378176078
 H         8.3947868420        3.1110300094        1.9843496399
 H         9.4249593522        3.0432418119        3.4172307514
 H         8.1967024459        4.1694705057        3.5920815206
 H         8.5519239618        2.2905733869        5.6646693158
 H         7.3028854365        3.4786723449        5.4844518199
 H         6.7155894361        1.7840168155        5.7081377232
 H         8.5496137339       -1.6569288618        2.8294335328
 H         8.3502359727       -2.7446813406        4.2937945880
 H         3.8345905362       -3.5669173070        0.1438748976
 H         3.6012844506       -4.2764731240        1.7385381997
 H         7.6519593028       -3.3773128262        0.5934178185
 H         6.9581443954       -4.9827787651        1.2627919198
 H         8.1372896535       -4.1557211543        2.1984534087
 H         4.6111983635       -4.2353567244        4.0196795210
 H         5.6454279254       -5.3413571200        3.0097625900
 H         6.3089050304       -4.4144769949        4.3370708085
 H         1.7652042101       -2.7700164359        0.3802265703
 H         3.0233662200       -1.3452615926        0.8102191016
 H        -0.8275772486       -4.6969263514        1.1320250094
 H        -1.7823324294       -4.3294292839        2.5327440177
 H         1.3097013286       -5.2190535910        2.6421654122
 H         0.7110298994       -5.0904316200        4.1777079884
 H         2.3679833930       -4.8281191749        3.9719283593
 H         1.1618402242       -1.5316304688        4.6680212016
 H        -0.4003589273       -2.3173248509        4.7338870892
 H         1.0135064673       -2.9406068118        5.6689493402
 H        -3.2060061016       -2.9161219613        1.6902326285
 H        -2.1038824025       -2.2329674881        0.4723313462
 H        -6.1085212561       -2.0123439144       -0.6816446033
 H        -4.5678421519       -2.0086157795       -1.5670244262
 H        -4.6307044813       -6.3222517742       -1.1211164356
 H        -6.0309206125       -6.2299753947        0.1640196744
 H        -4.4555682583       -6.5320722196        0.6318884430
 H        -6.2770921264       -3.8980739917        1.3387390796
 H        -4.8156928208       -3.9680642729        2.1691642456
 H        -5.2231796586       -2.6357392128        1.1540578935
 H        -5.7327348291       -2.5331185066       -3.8634037339
 H        -6.2604292521       -1.0034834649       -3.1163287383
 H       -10.3130621364       -0.3144513475       -3.2541346474
 H        -8.6830636492       -0.4778038379       -2.6312256592
 H        -6.8921113116       -3.3867363667       -5.4341207794
 H        -8.3558991824       -3.0549274522       -6.2065799048
 H        -8.3008884315       -4.4339802964       -5.0040629353
 H       -10.4099784608       -3.4201000516       -4.7577702004
 H        -9.4024986136       -4.1518220233       -3.4712844325
 H       -10.5637104757       -2.5802862239       -3.1630187565
 H        -7.9749832948        1.7945772461       -3.0731373361
 H        -9.2931105729        1.7928872713       -4.4596346385
 H       -10.8225724773        5.8951865490       -0.7601204988
 H       -11.6637119881        4.4653784042       -0.2677765608
 H       -10.5407303602        5.1931181781        0.7171472472
 H        -8.6304983974        4.7423801896       -3.9780724700
 H        -7.6646300571        3.7777804772       -2.7986511225
 H        -8.4009268296        5.2340478153       -2.2239713704
 H       -10.9234807152        5.5204278628       -2.9516976203
 H       -11.2737997503        4.1297662597       -4.0581352801
 H       -12.0765719364        4.3385779131       -2.6312095325
 Na        4.2614672657       -0.1755486327        2.4399069940
