155

 C         3.3179494768        1.9650830964       -7.2238154872
 C         3.0074541964        2.1050433601       -5.7102981297
 C         3.9079017811        3.0879365684       -4.7561462496
 C         3.4117935128        3.2155417318       -3.2454590376
 C         1.8520183843        3.3558473974       -2.8995072863
 C         5.1888801403        2.2660189484       -4.4077831664
 C         4.0904809017        4.4404428896       -5.2849283846
 O         2.0317630862        1.5073330652       -5.2865813329
 O         4.2344635295        3.1914139192       -2.3480172568
 C         1.7480290542        2.9057201955       -1.3852037062
 C         1.9876186105        4.0256667302       -0.4947186017
 C         1.9090427768        3.8021316529        1.0769661732
 C         3.1974084585        3.0546284959        1.5252822251
 C         4.5318828592        3.9062086390        1.5804973786
 O         2.3104203405        5.1725241498       -0.8232113915
 O         3.1417999163        1.8947559750        1.8395677394
 C         1.8297755322        5.1911687975        1.7204719710
 C         0.6388481571        3.0139257862        1.5351110536
 C         5.8476499790        3.3370369515        2.2325534624
 C         6.0824848271        2.4626648347        3.4610157123
 C         7.6275171885        2.1976906508        3.9580763962
 C         8.0712547540        0.8877627179        3.2132571844
 C         7.9522480738       -0.3604807788        4.1231856115
 C         8.5876365491        3.4316824008        3.6656875404
 C         7.5159322191        2.0392046489        5.4884464221
 O         5.2702366957        1.6820554447        3.9453428484
 O         8.4287734472        0.8439594631        2.0738252531
 C         8.1421955722       -1.7109333764        3.3277044868
 C         6.5898169005       -2.1544681100        3.1598628302
 C         5.9678223303       -3.3610278932        2.2832784017
 C         4.9251274967       -2.6701214792        1.2473516814
 C         3.8042219635       -3.4698530852        0.7986914157
 O         5.8144059796       -1.4052154983        3.6927748225
 O         5.1199612390       -1.5628671008        0.8123718351
 C         7.1270274167       -3.9724718495        1.4312570597
 C         5.2641339263       -4.5104811547        3.1828721077
 C         2.4089808885       -2.7190137535        1.2073891867
 C         1.9300588848       -2.3083513929        2.6587276164
 C         0.8346499115       -3.1311348920        3.3450138505
 C        -0.4655757086       -2.8009898653        2.4272051115
 C        -1.0971364289       -3.9178914675        1.6055020196
 C         1.1703014111       -4.6635562181        3.2631005436
 C         0.7368496934       -2.5328004271        4.8010368161
 O         2.4956998582       -1.3490738845        3.2098486859
 O        -0.6813567066       -1.6590231108        2.2258002679
 C        -2.3081245643       -3.3297134573        0.7147462199
 C        -3.2126035334       -4.2730153278       -0.1212901296
 C        -4.7946842525       -4.3520653118        0.1041444113
 C        -5.3180909082       -3.8158927627       -1.2422650880
 C        -5.3580951328       -2.3310710648       -1.6513881148
 O        -2.7707857115       -4.8029798902       -1.0917919087
 O        -5.7676973618       -4.5612310704       -2.0557009792
 C        -5.0330758134       -5.9799589978        0.2049473534
 C        -5.3928697263       -3.7375621080        1.4444090917
 C        -6.1893286145       -2.2245272479       -2.9196804798
 C        -7.6056077018       -2.6646432185       -2.8915106544
 C        -8.6053878471       -2.6933835267       -4.0442933716
 C        -8.9330455422       -1.0996893387       -4.3198363494
 C        -9.0673844880       -0.1879073637       -3.0556617880
 C        -8.0511711118       -3.2402456323       -5.3024456036
 C       -10.0048352355       -3.1636340848       -3.6772370737
 O        -7.9567936313       -2.9673690079       -1.7468260324
 O        -8.8073845969       -0.6943015365       -5.4328892733
 C        -8.9709740454        1.3398128342       -3.4546046370
 C        -9.7712967747        2.2789545189       -2.3724688683
 C        -9.9370573071        3.8284140832       -2.3469719743
 C        -9.7546588914        4.1504227998       -0.7837932078
 C       -10.4046541032        5.3059600072       -0.0832398684
 O       -10.6226476434        1.6074730026       -1.8601026885
 O        -9.1122754468        3.4713598193       -0.0126309896
 C        -8.7227853388        4.6828031342       -2.9262280604
 C       -11.3500275665        4.2092567624       -3.0431147595
 H         4.3682200265        1.5606780234       -7.2689092845
 H         2.7750032870        1.1239328855       -7.7032540429
 H         3.1460970744        2.9968277630       -7.6156517307
 H         1.4616127670        4.3420447459       -2.8976315587
 H         1.1844001762        2.7753837548       -3.5186269091
 H         4.9990940451        1.5328902200       -3.6724423944
 H         5.9413968241        2.9185180454       -3.8677192160
 H         5.6945866223        1.8580968560       -5.3028145433
 H         3.2742207968        4.7468950409       -5.9187233491
 H         4.4784516617        5.2886174423       -4.6976327803
 H         4.8870652528        4.2816385704       -5.9742185559
 H         0.7493335768        2.5649554687       -1.0300181381
 H         2.4529243100        2.1431577981       -1.0801952989
 H         4.7725045019        4.1725522084        0.4717920746
 H         4.2028308972        4.8674764992        2.0406794062
 H         2.7506719290        5.8077410898        1.3381577968
 H         1.9891477203        5.1368270087        2.8494018988
 H         1.0042318653        5.8516914704        1.5777836246
 H         0.5392489904        3.2868826113        2.6243298603
 H        -0.2958405017        3.4747378889        1.1813681546
 H         0.8298986294        1.9831682763        1.2618763423
 H         6.4732247758        4.1895132214        2.2801511254
 H         6.3768276079        2.7376170918        1.3559388083
 H         8.5957916863       -0.3933231511        4.9656409321
 H         7.0008667536       -0.2744395844        4.5789481827
 H         8.9729931273        3.4507502487        2.6523577911
 H         9.4794745193        3.3445151700        4.3938347913
 H         8.0508945479        4.3641096237        3.9631161674
 H         8.4962372579        1.6469565695        5.8828616651
 H         7.3808613275        3.0466992468        5.9027411697
 H         6.6485049953        1.4707610976        5.7552951431
 H         8.7312766082       -1.5423126756        2.4463974134
 H         8.6137636525       -2.3765347303        3.9432245655
 H         3.6925522838       -3.6346027677       -0.3903555246
 H         3.7984980936       -4.4012532042        1.2016772127
 H         7.7298455908       -3.2332594436        1.0699103286
 H         6.6852852571       -4.4457952770        0.5144827915
 H         7.6987510600       -4.6964561843        2.0322503375
 H         4.6345874309       -4.0285967912        3.9097843241
 H         4.7308780565       -5.2617364179        2.6657295924
 H         6.0568603346       -5.0777737622        3.7719647980
 H         1.7815248172       -3.5252137155        0.8537738488
 H         2.3630704444       -1.7683693366        0.7209985842
 H        -0.4059739238       -4.4277291100        0.8973846923
 H        -1.5161344694       -4.7189256136        2.2045940797
 H         0.8749197367       -5.1497799264        2.2766012976
 H         0.7110926863       -5.3683150537        4.0844914933
 H         2.2543625311       -4.7878317787        3.2632979016
 H         1.5935152239       -2.6103913227        5.4360753636
 H         0.2505720904       -1.5124359631        4.7835555688
 H         0.0392200175       -3.1741197635        5.2809231787
 H        -2.9186088289       -2.8362705456        1.4687920350
 H        -2.0594639250       -2.5090673342        0.0915816272
 H        -5.9229096332       -1.9495362897       -0.8145066878
 H        -4.3812996544       -1.8384817688       -1.7447101170
 H        -4.6777958867       -6.4243934638       -0.7243497393
 H        -6.0012010745       -6.2062983326        0.4282836386
 H        -4.6056107075       -6.4226880787        1.0856828517
 H        -6.5060529273       -4.1277674315        1.5721939829
 H        -4.8549804508       -4.1619967185        2.2966301285
 H        -5.3644768070       -2.6405212071        1.5872458203
 H        -5.7389582617       -2.5806494977       -3.7849680668
 H        -6.3130533336       -1.1520313953       -3.0708829447
 H        -9.9639216461       -0.5104976945       -2.5274079293
 H        -8.2374199879       -0.4107162757       -2.3284394178
 H        -7.3285755589       -2.5827594702       -5.8394030706
 H        -8.9348854219       -3.3255863694       -6.0299020232
 H        -7.6708606492       -4.1638097471       -4.9768798517
 H       -10.7480045622       -2.6244429265       -4.0995729628
 H       -10.0809906138       -4.1763256820       -3.9374694085
 H       -10.1031370494       -2.9923430100       -2.6609431208
 H        -7.9143431024        1.5721888158       -3.8220828708
 H        -9.7597365221        1.4876625912       -4.1777764742
 H       -10.0369290640        6.3403298963       -0.3333606051
 H       -11.5370142245        5.3331409104       -0.2210607669
 H       -10.3810322011        5.2164874024        1.0211340300
 H        -8.3144775524        4.0339100461       -3.7841867746
 H        -7.9553131489        4.6435660044       -2.1456475656
 H        -9.0101197399        5.6732248823       -3.1698101296
 H       -11.6815870422        5.2490976386       -2.7831367603
 H       -11.4553396981        4.0202265923       -4.0877418784
 H       -12.2005089865        3.5552453990       -2.6782137548
 Na        4.2019358832        0.0271020114        2.3713342841
