155

 C         3.2535978663        0.2805360386       -6.2201382702
 C         3.1455869544        1.6087405912       -5.5507508953
 C         4.3425556407        2.5253969955       -5.6426408840
 C         5.0469212162        2.6130212364       -4.2119478934
 C         4.5577865503        3.7683705317       -3.2657612845
 C         5.4802373329        2.1220602935       -6.6304840457
 C         4.0933066309        3.9743618394       -6.1361235679
 O         2.2056324734        1.8493023869       -4.8378765901
 O         5.9579149430        1.8834799527       -3.8902667570
 C         5.3641883405        3.7510334382       -1.9052057885
 C         4.8867700662        4.7905871251       -0.9615927146
 C         3.6175963396        4.2641767098       -0.0876173405
 C         4.4015778584        3.3869884601        0.9014256911
 C         5.0063709477        4.0983160910        2.1825512980
 O         5.5852761486        5.7530842706       -0.7197599213
 O         4.4544430284        2.2157019073        0.8131125513
 C         3.0160013738        5.4803150271        0.7253008354
 C         2.5426587534        3.2721471801       -0.6209876831
 C         5.9758195305        3.2733312742        3.1951545033
 C         5.7280080443        1.7011737222        3.6570232659
 C         7.0880430002        1.0208733977        3.9867004956
 C         7.4441862622        0.1091743033        2.6362861633
 C         7.8166825286       -1.4123488899        2.7685295139
 C         8.4373124734        1.8632126982        4.2106823683
 C         6.9337135129        0.1320574253        5.2320593738
 O         4.6775214788        1.1498249136        3.6931170304
 O         7.4508593962        0.6785275663        1.5656662988
 C         7.6553716595       -2.2261336106        1.5090487936
 C         6.3387946053       -1.8437451904        0.8522783136
 C         5.9635230799       -2.0588477829       -0.7213886663
 C         4.4927323223       -2.0609146032       -1.1277023001
 C         3.6137267132       -3.2308160094       -0.3524411210
 O         5.4429518738       -1.3875910452        1.6095884609
 O         4.0690859734       -1.4032162451       -2.0465874848
 C         6.6465475377       -0.8314821352       -1.4078589245
 C         6.6187267337       -3.3527292126       -1.2828879007
 C         2.1070173302       -2.9685406962       -0.2942229948
 C         1.5826784096       -2.3128601696        1.1181246044
 C         0.2153347512       -2.9074358255        1.8065813613
 C        -0.6946989802       -3.5422286539        0.7490819088
 C        -1.6823180501       -4.6820390680        1.0941273089
 C         0.8945732936       -4.1286157953        2.6159288362
 C        -0.5521078150       -1.9542758237        2.7779879945
 O         2.2619174532       -1.6488470224        1.8584691650
 O        -0.5833475337       -3.1301984408       -0.4075889245
 C        -3.1993746601       -4.3106851189        0.8454118068
 C        -4.1642524352       -5.4720223955        1.6163546739
 C        -5.6930552161       -5.1697668794        1.7835265375
 C        -6.6758513978       -5.3400796689        0.3820335127
 C        -6.1838604088       -4.5868250749       -0.9650650919
 O        -3.6853127277       -6.4337235291        2.1560915261
 O        -7.6106791348       -6.0461547289        0.5178878584
 C        -6.2690489578       -6.0976894756        2.8317861931
 C        -6.0767782265       -3.6258533723        2.0413103361
 C        -7.4308285781       -3.9047281852       -1.6828240019
 C        -7.5724017294       -2.4231466575       -1.3612717137
 C        -9.0640395309       -1.8404522894       -1.3484691058
 C        -8.9513790629       -0.1369967633       -1.4223204908
 C        -9.9967229424        0.7341267576       -0.6157566997
 C        -9.8598958519       -2.2709823729       -2.5725234000
 C        -9.7374673624       -2.5280128378       -0.0180155252
 O        -6.6580620222       -1.9409053396       -0.8120483963
 O        -8.1157368492        0.2098495938       -2.2080317953
 C       -10.0063656701        2.2700760670       -0.9389358159
 C       -10.0627302030        3.1320335716        0.2993995670
 C       -10.2412173422        4.7825698425        0.1738955059
 C       -10.2527096401        5.1794509121       -1.3994969015
 C       -10.8036979834        6.5126575765       -1.8504608574
 O       -10.1485483698        2.7816102243        1.4564095406
 O        -9.4035664574        4.7348186157       -2.1948130593
 C       -11.5964092870        5.1014876870        0.8527585465
 C        -9.0472584118        5.4457768148        1.0399579427
 H         3.5925834619        0.2947831080       -7.2871251192
 H         3.8075506189       -0.4506341211       -5.6229313868
 H         2.1607109309       -0.0188696057       -6.3829076182
 H         4.7204492658        4.8463106004       -3.6469935345
 H         3.4433846258        3.6441795321       -3.1555538487
 H         6.4130089650        2.6795890522       -6.7131164107
 H         4.9381267087        2.0137908964       -7.4956852528
 H         5.8986223948        1.0527362655       -6.4781328911
 H         4.3993500306        4.2698222885       -7.1189892371
 H         3.0054445535        4.3165549676       -6.0734529732
 H         4.8489871754        4.5376092633       -5.5511472876
 H         5.2731367595        2.7057133196       -1.5310371990
 H         6.4017454747        3.8472329772       -2.1565938824
 H         5.5592830712        5.0232188570        1.9050007501
 H         4.2232352128        4.3060928794        2.8218157215
 H         2.2152342817        4.9039923457        1.2265051899
 H         2.4714037240        6.2764111372        0.1662147647
 H         3.8197202965        5.8907147540        1.2996336445
 H         1.8253474805        3.1431526554        0.1919309534
 H         1.8298171912        3.7723119460       -1.3268547628
 H         2.9480038479        2.2638236769       -0.8346345388
 H         6.3546314211        3.8650040581        3.9934468367
 H         6.8532370089        3.1691924708        2.5217392158
 H         8.7449848374       -1.4737186867        3.4324001836
 H         7.1996485316       -1.8868869141        3.5857384043
 H         8.7939897890        2.1294076878        3.3007223930
 H         9.3212993735        1.2438977148        4.4748843817
 H         8.2821929340        2.7196580859        4.8314452553
 H         7.7785900668       -0.5578839175        5.2514912522
 H         6.7455963509        0.6347169230        6.1936656161
 H         6.0128019707       -0.5032639279        5.1273350301
 H         8.4994136040       -2.0396524432        0.7810712294
 H         7.4055441646       -3.3761249790        1.5904867261
 H         3.7223296241       -4.0897722675       -0.9292945013
 H         4.1957078347       -3.4724200885        0.5526632639
 H         7.5181178242       -0.4808420291       -0.8516367616
 H         6.0546705262       -0.0092878273       -1.6310128540
 H         7.1359061205       -1.1589294333       -2.3174150116
 H         6.2137464066       -4.3112676056       -0.9270850935
 H         6.7210105347       -3.3451661910       -2.4208490935
 H         7.6134948037       -3.5278074335       -0.9544129520
 H         1.6307028248       -3.9587013575       -0.3543060473
 H         2.0069424206       -2.2103503711       -0.9903497192
 H        -1.4199732329       -5.5391057352        0.4072813288
 H        -1.5479944281       -5.1520253697        2.0700598073
 H         1.3985565050       -4.8698167481        1.8971730052
 H         0.2316097075       -4.8479156795        3.2895550145
 H         1.8228713682       -3.7931586637        3.1126334643
 H        -1.4783709101       -1.4687961669        2.3771098000
 H        -0.8787194421       -2.4939939311        3.6406378541
 H         0.1567865745       -1.2405122336        3.2047647929
 H        -3.3707410417       -3.4262533084        1.3936912602
 H        -3.4537873665       -4.3144174741       -0.1905441600
 H        -5.4470825204       -3.8087287950       -0.7773937541
 H        -5.8574014466       -5.4174144313       -1.5644977238
 H        -6.3743298803       -7.0426007138        2.4027829711
 H        -7.1628172940       -5.5966890011        3.1767553426
 H        -5.5512333594       -6.2892819623        3.5719125218
 H        -7.2270430823       -3.6364413575        2.2047941127
 H        -5.7224749742       -3.1539580626        2.9568138818
 H        -5.8253934105       -2.9102165722        1.1861109233
 H        -8.3465179349       -4.5211148285       -1.6530778219
 H        -7.3336831255       -3.7164465900       -2.8502576787
 H       -10.9486631399        0.2440720566       -0.6000452510
 H        -9.7675338049        0.5628022387        0.3660840295
 H        -9.4388310607       -1.8845101799       -3.5466508292
 H       -10.8725489322       -1.7679211988       -2.5937620864
 H        -9.8070075815       -3.3249169174       -2.6917457529
 H        -8.9837158181       -2.9161334121        0.5790391988
 H       -10.4372573193       -1.8549939203        0.5143237732
 H       -10.2301790983       -3.3916852038       -0.3498520051
 H        -8.9943514830        2.5350923651       -1.2791097876
 H       -10.8298273655        2.3939408210       -1.6460894237
 H       -10.4037646441        6.5310199444       -2.8418482192
 H       -11.8175653447        6.7776815150       -1.7537407942
 H       -10.2861419587        7.2350916034       -1.2000510769
 H       -11.6599777771        5.6954666660        1.7456793960
 H       -12.1311190728        4.2096024535        1.0866246730
 H       -12.1870209703        5.6367228533        0.0569474115
 H        -9.2893984758        5.5035435593        2.0547243246
 H        -8.0576151737        4.9351048686        0.7976456036
 H        -8.9926309545        6.4586408546        0.7422809702
 Na        3.7808014906        0.2138809206        1.4629287256
