155

 C        -2.2967766334       -8.3591108218        3.7087826983
 C        -1.3018805548       -7.2744306143        3.4110701777
 C        -0.3644599740       -6.8369965402        4.5061697349
 C        -0.2870317489       -5.1542328334        4.5158431330
 C        -1.2753854849       -4.2085901725        3.7569811124
 C        -0.7956123369       -7.3784879586        5.9077960428
 C         0.9966743971       -7.5554990598        4.1436564636
 O        -1.2715086920       -6.6655631235        2.3527188636
 O         0.6490706248       -4.6304384119        5.0885568430
 C        -1.2097241591       -2.8091135014        4.2933671963
 C        -2.2589930257       -1.9961297041        3.5693855955
 C        -2.9456720542       -0.6455384542        4.1704312675
 C        -3.1540810553        0.4352153840        3.0312618096
 C        -1.8459571058        0.9568540363        2.4388247108
 O        -2.6180986906       -2.3283737284        2.4609190321
 O        -4.2110668360        0.7521876060        2.5652620325
 C        -4.3271024846       -0.9185808888        4.8203704284
 C        -1.9353255856       -0.0473977263        5.2534228079
 C        -2.1407430244        1.8142457870        1.2543492118
 C        -0.9083179384        1.9675829179        0.3330365125
 C        -0.7024837740        3.3564793359       -0.3860816302
 C         0.4831135156        4.0108722474        0.3729617744
 C         0.2527087558        5.2275006253        1.3311102508
 C        -0.2683685701        2.9999613310       -1.8005869701
 C        -2.0295419876        4.3170863640       -0.5206446630
 O         0.0154731072        1.1636333098        0.3444111220
 O         1.5931200207        3.5321032195        0.2805111407
 C         1.3750053963        5.4437647867        2.3341506919
 C         1.2896647055        4.4167787935        3.4213109293
 C         2.0851747669        4.5218615078        4.7371028274
 C         3.3199558250        3.6587180825        4.3601204170
 C         3.3712739740        2.1781060952        4.4371869637
 O         0.5143288254        3.4737721123        3.3324241527
 O         4.2701514208        4.2412968442        3.7976541200
 C         2.4644052143        5.9744374147        5.0827507878
 C         1.1713829990        3.8512873600        5.9149278687
 C         4.3879646279        1.6342310531        3.5109933022
 C         4.0813033061        1.6806662571        2.0698528852
 C         5.3257665442        2.0922860586        1.0784412221
 C         5.3195021534        1.0095164757       -0.0402133857
 C         6.3266565185        0.9726860646       -1.2097028546
 C         4.8981219066        3.4151427442        0.4713855913
 C         6.7014851486        2.1543119340        1.6754951659
 O         2.9960942909        1.2730359792        1.7219567841
 O         4.3991827950        0.2066672842        0.0449615966
 C         5.7613899879        0.2472551625       -2.4817669340
 C         4.3157140962        0.8817510457       -2.9017109071
 C         3.4042571343        0.1573309344       -3.9095282188
 C         2.1896123401       -0.5925329123       -3.1346511801
 C         1.9287529670       -2.0536641422       -3.4740801749
 O         3.9782057702        1.8952958324       -2.3006872351
 O         1.5114101374       -0.1418990632       -2.2568025809
 C         2.6971107104        1.2773372096       -4.7996108056
 C         4.1737795312       -0.8227321350       -4.8396613325
 C         0.5247915762       -2.5046859839       -2.9710203447
 C        -0.6568209104       -1.8655076209       -3.7970869436
 C        -2.1820781103       -2.4450290902       -3.6419724780
 C        -3.1520297797       -1.2975567685       -3.9628760856
 C        -3.7880640423       -1.1477483325       -5.3319860486
 C        -2.1860815977       -3.7336861411       -4.4737635878
 C        -2.4808991755       -2.8211540490       -2.2559210288
 O        -0.4890311109       -0.8689334284       -4.4602375271
 O        -3.3878332883       -0.4363945135       -3.1169956390
 C        -5.2678482283       -1.1448103484       -5.3614565637
 C        -5.8925252388       -0.0275427887       -6.2912197198
 C        -7.4963658825        0.0869564879       -6.3709710511
 C        -8.1172988238       -0.7398118556       -7.5837034294
 C        -9.6749116050       -0.7102297378       -7.8550682079
 O        -5.1995890488        0.7543718038       -6.8860932442
 O        -7.3437488755       -1.2277678841       -8.3793581538
 C        -8.1405656080       -0.1433653452       -4.9699873112
 C        -7.7424869584        1.6084033732       -6.8540221637
 H        -3.1692321885       -8.4407200876        3.0940240320
 H        -1.8897668526       -9.3750859079        3.4382579758
 H        -2.6164283404       -8.5309774986        4.7290239189
 H        -0.9507330852       -4.2100340853        2.7566851881
 H        -2.3088607877       -4.5973690773        3.7038723306
 H        -1.7344214932       -6.9770497661        6.2969531399
 H        -0.1450043240       -6.8855610731        6.7278000860
 H        -0.5951934208       -8.4246601296        5.8698762751
 H         1.1401918757       -7.3968811923        3.0558917088
 H         1.8607860617       -7.2176794821        4.7509518153
 H         0.8519778467       -8.6513510394        4.2802721268
 H        -1.2884551607       -2.7916937119        5.3466628569
 H        -0.2618017372       -2.2377015381        4.0500107806
 H        -1.1823259932        1.5059604588        3.0602954951
 H        -1.3331007819        0.0514206267        2.0328515678
 H        -4.5574379597        0.0620216616        5.2823838732
 H        -4.5367013599       -1.6949494098        5.5394791622
 H        -5.0487986018       -0.9417036703        3.9595727322
 H        -1.8381790446       -0.5809800073        6.1881046850
 H        -0.9645822174        0.0367792314        4.7543093465
 H        -2.3173427169        0.9015092885        5.5912134467
 H        -2.4368481529        2.8623771364        1.4517232604
 H        -2.9609988822        1.3130995924        0.6914879206
 H         0.1054390327        6.1794732878        0.7638701632
 H        -0.7258934296        4.9815646546        1.7594942237
 H         0.2969783786        2.0308279234       -1.8559693445
 H         0.1626847542        3.8037897662       -2.3717274637
 H        -1.0662696778        2.6876234248       -2.4996304483
 H        -2.8620013295        3.7359749055       -0.9373294300
 H        -2.2692254484        4.5573146589        0.4976559214
 H        -1.7298987776        5.1817301305       -1.0894622630
 H         2.3768503986        5.3108539715        1.8795774420
 H         1.4630334054        6.4413107958        2.8424807265
 H         3.5891028535        1.8351461954        5.4194805290
 H         2.3528549544        1.8313854962        4.1944759728
 H         3.0864930360        6.4136661520        4.2978987014
 H         3.0252185138        6.1658830028        5.9691284001
 H         1.6084370998        6.6209225101        5.2314074339
 H         0.3176973855        4.4488108401        6.1283865605
 H         0.7797311883        2.8749039864        5.5715847615
 H         1.8553382186        3.8183498737        6.8054716508
 H         4.6180242175        0.6356582150        3.8208843714
 H         5.3505976363        2.0887196121        3.6861804145
 H         6.6402455317        2.0720549548       -1.3499699959
 H         7.1866464903        0.3620008204       -0.9002694683
 H         3.8195565967        3.4645081155        0.3651126828
 H         5.2641077501        3.3871336485       -0.5763318131
 H         5.1907804611        4.2107787056        1.0930020797
 H         7.5310304578        2.4854003956        1.0364979673
 H         6.7363943654        2.8748094046        2.4933249729
 H         7.0113587633        1.1440695216        2.0724421533
 H         6.4148755506        0.3957615171       -3.2780706623
 H         5.8762523966       -0.8513777071       -2.2771632865
 H         2.0676712086       -2.2881420650       -4.5592871145
 H         2.6800728613       -2.7204915799       -3.0204759856
 H         2.5951603770        2.1633693752       -4.1904822410
 H         1.6865505474        0.8895015519       -5.1361571768
 H         3.3997178543        1.5771087582       -5.6084507130
 H         3.4097531798       -1.2379695400       -5.4509232214
 H         4.7707098828       -0.2871650107       -5.4704839977
 H         4.7733906403       -1.6405242414       -4.3833430602
 H         0.2650737981       -2.0142352248       -1.9918436266
 H         0.3816307434       -3.6246584277       -3.0314882053
 H        -3.4941502428       -0.2054452593       -5.8080001819
 H        -3.4881504366       -1.9952280769       -5.8572337172
 H        -2.1859930314       -3.6332382106       -5.5443317021
 H        -3.1508542852       -4.1991662668       -4.3492314491
 H        -1.4001767012       -4.3800995458       -4.1086827988
 H        -2.3423237995       -2.0759475456       -1.5330521959
 H        -3.5016638168       -3.2617976487       -2.2196581176
 H        -1.8033803670       -3.5618487021       -1.8820496567
 H        -5.5110117794       -2.0883969131       -5.8703855354
 H        -5.7487778849       -1.1612937393       -4.3923605911
 H        -9.9842302565        0.3333940309       -7.9025847555
 H        -9.9726341357       -1.2196908363       -8.7868496064
 H       -10.1906051255       -1.2685083320       -7.0325901447
 H        -8.2614854314        0.7250120412       -4.3128898493
 H        -7.7376011151       -1.0358376688       -4.4477226858
 H        -9.1530758150       -0.4326446178       -5.1303737124
 H        -8.7856597853        1.9302312084       -6.8364228308
 H        -7.1453395915        2.3435357122       -6.1748154174
 H        -7.2413174946        1.8541811031       -7.8305598878
 Na        2.2572927130        1.4063671132       -0.5523794997
