155

 C         3.3233702959        0.3362153189       -4.8041975406
 C         3.5273091945        1.7666174208       -5.0760134957
 C         4.7625260469        2.3308870077       -5.8065245082
 C         5.6457039250        2.9216690926       -4.6372399903
 C         4.9452915107        3.9951309798       -3.7739016303
 C         5.3236492480        1.1368490467       -6.6357526178
 C         4.5822552146        3.5899426909       -6.5854223487
 O         2.6688936800        2.6392373626       -4.7417467935
 O         6.7937751262        2.5675448262       -4.4404374725
 C         5.2783478782        3.5541761048       -2.3483567499
 C         4.9711906628        4.5502454673       -1.2310926213
 C         3.6676306119        4.2888549974       -0.3331459736
 C         4.1270239952        3.1043943820        0.6667269460
 C         4.9162846285        3.6106737808        1.9471902610
 O         5.5577779638        5.5512707958       -0.8940051038
 O         3.7412194185        1.9435422737        0.3316231872
 C         3.2668321664        5.5172157291        0.4628848995
 C         2.4584786727        3.7730762800       -1.2319581445
 C         6.1639233351        2.6846727367        2.6739888082
 C         5.7815358943        1.3479308172        3.2674845080
 C         6.9039218763        0.4326412895        3.7952625159
 C         7.6484140825       -0.2093671796        2.5258707941
 C         7.8945511282       -1.6795468354        2.3158762045
 C         7.9237840977        1.2525973541        4.6396758446
 C         6.3462175873       -0.7110043671        4.7353519915
 O         4.5283726347        1.0205264894        3.3091639559
 O         8.1202722968        0.5068519792        1.6253357261
 C         7.6157549252       -2.0082783530        0.8905875106
 C         6.1031221277       -1.7864751345        0.4660111100
 C         5.7374573456       -1.7738754439       -1.0202041535
 C         4.2571578802       -2.3410624952       -1.3019249132
 C         3.6289134028       -3.2725497060       -0.1932843551
 O         5.4149913162       -1.2432662693        1.2722931971
 O         3.7779927684       -2.2444118116       -2.4107572777
 C         5.7949076660       -0.1855942618       -1.4431681359
 C         6.6999111300       -2.6128268400       -1.9565539627
 C         2.0836859435       -3.0498786178       -0.2448199981
 C         1.4158649547       -2.3064054139        0.8572434909
 C         0.2334533713       -3.0865596676        1.6063681477
 C        -0.7126018113       -3.5252875039        0.4749203804
 C        -1.7078465613       -4.7707598741        0.7619554793
 C         0.9236637642       -4.2463882651        2.3101237330
 C        -0.3804817787       -2.1693010542        2.7227093251
 O         1.8461521389       -1.2576297984        1.2727717851
 O        -0.7105461669       -3.0788060577       -0.6509398390
 C        -3.0105206229       -4.2307097881        1.3715397140
 C        -4.2710882922       -5.3077959997        1.6307922686
 C        -5.6873933453       -4.7842437796        2.1731823636
 C        -6.6014513684       -5.0930141447        0.8503697589
 C        -6.1304946367       -4.2140468848       -0.3686060111
 O        -4.0840847348       -6.4170250496        1.2194283390
 O        -7.4395466432       -5.9311782654        0.8760362314
 C        -6.0268407907       -5.5770427148        3.5037868369
 C        -5.6962930964       -3.2332351009        2.4429596846
 C        -7.3434978450       -3.5933594392       -1.0400705947
 C        -7.8503034376       -2.3042850474       -0.5367325713
 C        -9.2256985651       -1.7055632884       -0.9108430103
 C        -8.8472208111       -0.1815957271       -0.9453811627
 C        -9.1106797391        0.8319966621        0.1382995975
 C        -9.8592870446       -2.1317580837       -2.2174499159
 C       -10.1662291113       -2.0663090529        0.3089705910
 O        -7.1182913997       -1.7134185173        0.2261441738
 O        -8.3509343971        0.1466097242       -1.9891080169
 C        -9.4425787896        2.2378627591       -0.4475463686
 C        -9.7727942057        3.3262306288        0.6332077734
 C        -9.9655812994        4.8788271717        0.4232491988
 C       -10.4816884690        5.1501588687       -1.1082298929
 C       -11.9414422552        5.7141093812       -1.2883026587
 O        -9.8043849805        2.8289559104        1.7570527639
 O        -9.9470544151        4.5042435822       -2.0556036014
 C       -10.9496809090        5.5943674851        1.4399705283
 C        -8.5629405537        5.5944859297        0.5369330788
 H         2.5125925853        0.2704939877       -4.1207222917
 H         3.1357127724       -0.1270419231       -5.7207388493
 H         4.1508089751       -0.1328671263       -4.2337267583
 H         5.2518747936        5.0115587035       -3.7581425930
 H         3.8750197262        4.2264167835       -4.0042548221
 H         6.2368579008        1.5208698119       -7.1602860010
 H         4.7328190966        0.7354395121       -7.4528649068
 H         5.5593554238        0.2648484744       -6.0953732041
 H         4.3026947996        3.1511998505       -7.5545324084
 H         3.7358014680        4.1672680028       -6.1883080827
 H         5.3075556911        4.3744788028       -6.5535791182
 H         4.8151024718        2.5840308201       -2.1057006423
 H         6.3646347562        3.3801345492       -2.2887305245
 H         5.4759609736        4.5754858720        1.7470781906
 H         4.2271912012        3.6291703462        2.8301642873
 H         3.3009152314        6.3597400118       -0.2095214134
 H         3.7068079031        5.7054885269        1.4357602887
 H         2.1859142114        5.2739611902        0.7764343500
 H         1.9074608473        3.1277849326       -0.6249125150
 H         1.8467541065        4.4786870105       -1.7529306404
 H         2.8155481803        3.1613809903       -2.0422476546
 H         6.6241276572        3.3741580378        3.4324587780
 H         6.9872149382        2.5186178589        1.9747257857
 H         8.9482376428       -2.0322265235        2.4558051207
 H         7.4554557540       -2.3268953793        3.0456126420
 H         8.4184141084        2.0115955941        4.0482008019
 H         8.6397983561        0.5257873720        4.9225505511
 H         7.6340748124        1.6595824785        5.6254184991
 H         7.2652687714       -1.1807609381        5.1837551294
 H         5.8708030080       -0.2999024644        5.6242290477
 H         5.6380954612       -1.4902309175        4.2568396699
 H         8.1815018659       -1.2174732766        0.3554192834
 H         7.9368005445       -2.9707698111        0.7531054352
 H         3.8901132096       -4.2127796992       -0.6823068430
 H         4.0902806712       -3.0875808087        0.8806280959
 H         6.7218850552        0.1371131902       -1.9607856884
 H         5.6235104967        0.5118493535       -0.6797215259
 H         4.9595789138       -0.0289238445       -2.0362478344
 H         6.7517049878       -3.7132995740       -1.7486918459
 H         6.4022706178       -2.4303768207       -2.9766483677
 H         7.8069890133       -2.2964505131       -1.8921536337
 H         1.5884776907       -4.0822049845       -0.2172010470
 H         1.7658771484       -2.6286999009       -1.2555226685
 H        -1.8518226313       -5.2426321572       -0.1884648294
 H        -1.4072052364       -5.5439699749        1.5126270840
 H         1.2602787843       -5.0685409109        1.6453218320
 H         0.2309253360       -4.6210641860        3.0508712229
 H         1.7619531123       -4.0618218134        2.9883910864
 H        -0.6811918547       -1.1529600669        2.5195935455
 H        -1.3098886378       -2.6165364509        3.0424317562
 H         0.3084228480       -2.0456274198        3.5813712725
 H        -2.8617938772       -3.7727709238        2.4090836079
 H        -3.2972928890       -3.3143416777        0.7614175367
 H        -5.3416531654       -3.4556066394        0.0329636788
 H        -5.6215498370       -4.9076462983       -1.0815655654
 H        -5.8726450544       -6.6448224504        3.3634951609
 H        -7.1034143523       -5.4153732011        3.7458635596
 H        -5.4637145991       -5.1665952001        4.2884967891
 H        -6.3456894942       -2.8571688633        3.1699948196
 H        -4.6214778440       -2.9919937640        2.7117759015
 H        -6.0650390137       -2.6814482328        1.5629836408
 H        -8.1436551460       -4.3884148664       -0.8098533421
 H        -7.1253438766       -3.5921078551       -2.1135734749
 H       -10.0004914086        0.4992493478        0.6613051069
 H        -8.1929437697        0.7561749924        0.7240367099
 H        -9.3392389616       -1.9254651426       -3.0695178286
 H       -10.8992724135       -1.8878796539       -2.3526683198
 H        -9.9877994626       -3.2336567721       -2.0686500659
 H        -9.5375744761       -1.8199262881        1.1208310467
 H       -11.0715437513       -1.4600396521        0.2754774774
 H       -10.4142947280       -3.0913752253        0.2599231043
 H        -8.4956241216        2.6058681860       -1.0043983361
 H       -10.3027008589        2.0337835251       -1.1424478169
 H       -11.9594476208        6.1116801897       -2.3284701571
 H       -12.6149171087        4.8584019386       -1.2312636263
 H       -12.2776128912        6.4198153594       -0.5322592462
 H       -11.3277792333        6.5701873240        1.0198361702
 H       -10.4788094473        5.7737464913        2.4399443221
 H       -11.7937193107        4.9709911739        1.5916462743
 H        -8.1839533059        5.4732476575        1.5198559985
 H        -7.9917423788        5.0175341281       -0.1585333839
 H        -8.6249693109        6.6601458239        0.2165204015
 Na        3.4492907472        0.1333336351        1.5306908936
