155

 C         2.8805046623        0.9793514918       -4.8632863631
 C         3.6387057890        2.2318925077       -5.2075037052
 C         5.0389687669        2.2118288002       -5.8207505920
 C         6.1340148741        2.6965976115       -4.8101876794
 C         5.7560583344        3.7031768384       -3.6377977436
 C         5.4410227677        0.7933037589       -6.3525459912
 C         4.9276377596        3.2196064245       -7.0620599343
 O         3.0109941585        3.2914634676       -5.1618365206
 O         7.2690368094        2.3578154034       -4.9252352426
 C         5.2378321161        3.2400249564       -2.2530386405
 C         4.9825983258        4.5404246394       -1.4532631735
 C         3.7397621363        4.4697546026       -0.5059545127
 C         3.9473434581        3.0038753129        0.1038561816
 C         5.0130163659        3.0179351392        1.2674346648
 O         5.7610096640        5.4745352237       -1.4562710391
 O         3.4116700135        1.9668666046       -0.3292148928
 C         3.8531867079        5.6107853835        0.5016905507
 C         2.4189163061        4.6944498116       -1.2569980385
 C         5.9946318366        1.8172910303        1.5800702790
 C         5.5718499298        0.7989828708        2.6338128814
 C         6.6542746416       -0.0098745477        3.4199440355
 C         7.9527706200       -0.2617971217        2.4966472019
 C         8.2648060775       -1.6504270473        1.8203469817
 C         7.0659231272        1.0068300297        4.5122514679
 C         6.2597894426       -1.2314757091        4.1079770539
 O         4.3570788441        0.4826293869        2.7571543849
 O         8.7048887648        0.6231954906        2.4863600698
 C         7.8509222105       -1.7480091884        0.2322942811
 C         6.3513716315       -1.4659306850       -0.0641653656
 C         5.6806588468       -1.6138247565       -1.4067612019
 C         4.1119482343       -2.0032361507       -1.2978490797
 C         3.8670932626       -3.2268502741       -0.4766236588
 O         5.6706112321       -1.1835429094        0.8653611699
 O         3.3155801003       -1.4101522269       -1.9326056934
 C         5.7825661061       -0.2820059801       -2.2125099693
 C         6.4749770350       -2.6722695675       -2.2075760999
 C         2.3995625688       -3.6409913036       -0.3670314819
 C         1.6679863165       -2.8314162630        0.6793499391
 C         0.2053159557       -3.4191045678        1.3130600336
 C        -0.9072900225       -3.5491981223        0.3008271704
 C        -2.1435722866       -4.4399787357        0.4516893087
 C         0.5905140638       -4.6722229162        2.0646676747
 C        -0.2304955496       -2.4033956758        2.4471654124
 O         2.2106581522       -1.8272461855        1.0350528781
 O        -0.7948014007       -2.9119123861       -0.7493904729
 C        -3.1501779858       -4.2081009656        1.5612854381
 C        -4.3331261079       -5.2649253121        1.6383138799
 C        -5.6853592071       -4.8647760766        2.6361630490
 C        -6.9381960752       -4.3531575944        1.8598735937
 C        -6.4647386094       -3.8689113089        0.5039287035
 O        -4.3017216158       -6.3488466996        1.0836777681
 O        -8.1082581698       -4.5705854440        2.1967422849
 C        -5.9535353496       -6.1432998207        3.3955989983
 C        -5.2522903445       -3.7179676172        3.6332110100
 C        -7.4977668363       -3.2000593095       -0.4360692557
 C        -8.1574562209       -1.9619841118        0.3615485565
 C        -9.5147641497       -1.4492822449       -0.4088172481
 C        -9.2197568333        0.1169867516       -0.6736985024
 C        -8.7754074760        0.9426937936        0.5619772658
 C       -10.1174770615       -2.2015421681       -1.5195062274
 C       -10.7262846014       -1.3843047347        0.7029260333
 O        -7.8797230751       -1.5942120634        1.4467537216
 O        -9.1666315866        0.5776215792       -1.7677753272
 C        -8.3217115471        2.3620781333        0.1789363165
 C        -9.0929517388        3.3563343412        1.0644415026
 C        -9.4098824513        4.7438112123        0.4613057722
 C       -10.9194508860        4.6817829065       -0.3535747461
 C       -12.1120274362        3.7855731667        0.0166952024
 O        -9.7918555469        3.0340313000        1.9952892545
 O       -11.1301921766        5.4413380164       -1.2382282227
 C        -9.7240287802        5.9044369239        1.5099514369
 C        -8.4760021040        5.5798911986       -0.5215633552
 H         3.3037826749       -0.0084322683       -5.2591009981
 H         2.9114754100        0.6879391477       -3.7602157952
 H         1.8450769518        1.1403117771       -5.2770236012
 H         6.7219883593        4.2731040651       -3.5456543140
 H         4.9450889915        4.4592141155       -3.8766276028
 H         6.4410613628        0.8945293757       -6.8084216397
 H         4.8590930701        0.3624312229       -7.0888939916
 H         5.6503247968        0.0153499346       -5.5542350733
 H         4.3676094622        2.8663539524       -7.9612172684
 H         4.2865220167        4.1167544755       -6.6643189566
 H         5.8991734511        3.5445299987       -7.4629854343
 H         4.2721499140        2.7515172927       -2.5491330357
 H         5.8567900908        2.5395906772       -1.6590003014
 H         5.6602768211        3.7769890055        0.7383697224
 H         4.7955182507        3.5202554515        2.1137306209
 H         2.8354787901        5.9431104142        0.6799878341
 H         4.4342834410        6.5262670696        0.3005190673
 H         4.1082633874        5.1461823355        1.4257436072
 H         2.2304076235        4.3978777572       -2.2868131890
 H         1.5101844882        4.2178667663       -0.8034779866
 H         2.0314882324        5.6694246619       -1.2728145146
 H         6.9725805382        2.1292447341        1.7875355730
 H         6.0044591930        1.2202190905        0.6573194057
 H         9.3939919634       -1.6855681643        1.7017471330
 H         7.6389050425       -2.3898425231        2.3778682032
 H         7.3089985999        1.9974870221        4.2586693088
 H         7.9372250774        0.6053582298        5.1112857515
 H         6.1952637724        1.1520394409        5.2043986153
 H         7.1338660628       -1.5490693893        4.6050603536
 H         5.4635313146       -0.9852324663        4.7542843827
 H         5.9066957764       -2.0232946168        3.4409022407
 H         8.5259773941       -1.1622128960       -0.5217816553
 H         8.0452009041       -2.8379992988       -0.0536368936
 H         4.4241777152       -3.9641181633       -1.0388651328
 H         4.2535156723       -3.1125795738        0.5692147290
 H         5.6992510558       -0.4633689653       -3.3194350388
 H         6.7779335499        0.1308506313       -2.0568460473
 H         4.9787355362        0.4799020357       -2.0970158401
 H         6.4497542505       -3.6276969013       -1.6800901013
 H         5.8932659536       -2.8792056122       -3.1979565987
 H         7.4718345175       -2.2580562032       -2.3813347351
 H         2.3037602900       -4.7507977385       -0.0190302096
 H         1.9569195587       -3.8631927325       -1.2802930052
 H        -2.7571642518       -4.3074482652       -0.4278652529
 H        -1.6793798127       -5.4730706570        0.4215152085
 H         0.7872275852       -5.5482708707        1.3923951723
 H        -0.2791084858       -5.0671602082        2.7013354925
 H         1.5019701083       -4.5725689614        2.6946018843
 H         0.1184891422       -1.3618836116        2.6099633291
 H        -1.2559616339       -2.3365312299        2.5806217163
 H        -0.1550256119       -2.9257525114        3.3852449030
 H        -2.8017972003       -4.0927538866        2.5469477421
 H        -3.6130965063       -3.2516311365        1.3508782147
 H        -5.6147821739       -3.1268060920        0.6939601330
 H        -5.8920468081       -4.6260365593        0.0743418897
 H        -6.1978621559       -7.0445992263        2.7935533548
 H        -6.8569166127       -6.0339822744        4.0965989509
 H        -5.0324409686       -6.2883600961        3.9999200314
 H        -5.8177170187       -4.0352034231        4.5813904128
 H        -4.2837868632       -3.9690196764        3.9232646215
 H        -5.1705952018       -2.6484838588        3.4245883308
 H        -8.1835509036       -3.8265261875       -1.0483694802
 H        -6.6999365094       -2.7771150334       -1.1314260591
 H        -9.6804969291        1.1361269317        1.0992829397
 H        -8.1426436560        0.3610726948        1.1135504363
 H        -9.4834908221       -2.2932937448       -2.5324350498
 H       -11.0340775906       -1.7242994972       -1.8489244734
 H       -10.1554408920       -3.1681001832       -1.1829170870
 H       -10.3196770736       -1.0758250305        1.7047873695
 H       -11.5285925389       -0.6724545674        0.4031133835
 H       -11.0224113687       -2.4363831269        0.8273939688
 H        -7.2780771350        2.6614766735        0.4035668455
 H        -8.3385087040        2.4711942385       -0.9009655674
 H       -11.7665910990        2.7810351034       -0.0391884041
 H       -12.1650366439        4.1144136692        1.0269473131
 H       -12.9652144003        3.8685738460       -0.6595704752
 H       -10.7074911711        6.3882434401        1.3223519360
 H        -8.9687584247        6.6420946397        1.4135211568
 H        -9.7578671256        5.4826308981        2.5406997428
 H        -7.7314257027        6.1305721356       -0.0004975023
 H        -8.0129011500        4.7856360546       -1.2129560521
 H        -9.1497734432        6.2777125018       -1.0603110028
 Na        3.6294013200        0.0374704690        0.6654045145
