155

 C         2.6299477763        1.2638371467       -5.5839094039
 C         3.5358249865        2.4546608315       -5.5909537060
 C         5.0656351417        2.1718416445       -6.0398534056
 C         5.8811409597        2.5337768765       -4.6828759425
 C         5.6611607686        4.0623491568       -4.1820164494
 C         5.3620332444        0.7848656647       -6.4310188813
 C         5.5388130570        3.2171915312       -7.0632431746
 O         3.1757533207        3.5057129675       -5.1341876069
 O         6.4888525366        1.6943080220       -4.0728887384
 C         5.6772308966        3.8169222325       -2.6230993218
 C         5.3065357372        4.8823470667       -1.6107897577
 C         4.0510868914        4.4961608067       -0.6532113820
 C         4.2523861293        3.1081476157        0.2004695555
 C         4.9655281399        3.1454614003        1.5470722580
 O         5.8838616387        5.9089143862       -1.4223967071
 O         3.7786696861        2.0448813059       -0.2360948198
 C         3.8260022752        5.6139035872        0.3750007048
 C         2.7741237074        4.2209159440       -1.4583022355
 C         6.1161169028        2.1037223410        1.7846274184
 C         5.6183112779        0.7422376513        2.3640435740
 C         6.6932366296       -0.0172349359        3.2367329585
 C         7.8604488617       -0.3015272136        2.3180303878
 C         7.9182802307       -1.6711679829        1.7000818562
 C         6.9878568716        1.0006889949        4.3505658250
 C         6.0949477573       -1.3338765542        3.9402217258
 O         4.4389019100        0.4047457445        2.3792757454
 O         8.5884403679        0.5080046408        1.9781635572
 C         7.8192608450       -1.6255054747        0.1206266418
 C         6.3254380087       -1.6572300565       -0.2855994924
 C         5.6936123131       -2.1864780625       -1.6876386461
 C         4.1839054830       -2.3569531073       -1.5153054879
 C         3.4707777319       -3.5469933239       -0.9516752589
 O         5.6021114241       -1.3155213153        0.6402374418
 O         3.5571727981       -1.2922670516       -1.5922496674
 C         5.9722641443       -1.1135270708       -2.7301261665
 C         6.4045359189       -3.4630978815       -2.1792934942
 C         1.8635360563       -3.3735639636       -0.7705857349
 C         1.4122376878       -2.8975853900        0.6471190628
 C         0.2543457246       -3.4943190110        1.3483421721
 C        -0.9368711194       -3.6020765451        0.1970327337
 C        -2.0358703975       -4.5244175511        0.4056614180
 C         0.6308399035       -4.9687594932        1.9889769239
 C        -0.0960861154       -2.5531830700        2.4879983831
 O         2.0148533538       -1.9391678354        1.1057710608
 O        -0.8019271923       -2.9039310432       -0.7617698929
 C        -2.9293568943       -4.1555215330        1.6254619263
 C        -4.1659431697       -5.1541651494        1.7651473514
 C        -5.3162436057       -4.8865640213        2.6750983008
 C        -6.5603204493       -4.1488953867        1.9763194179
 C        -6.4415855031       -3.4781430195        0.6099453744
 O        -4.0805010313       -6.1447353525        1.0642105602
 O        -7.6219646639       -4.3234703180        2.5715519400
 C        -5.9095315025       -6.3373278158        3.1779129999
 C        -4.8432026063       -4.0002110262        3.8533950618
 C        -7.9580802553       -3.3613869361        0.0741144904
 C        -8.5257098041       -2.0342682756        0.7249763389
 C        -9.7339445914       -1.2507131846        0.0588498718
 C        -9.1129677095        0.1507682505       -0.3163847549
 C        -8.6259865751        1.1179903161        0.8474785955
 C       -10.4376548458       -1.9075274155       -1.2214029453
 C       -10.8874897701       -1.1942694463        1.0620550175
 O        -8.0947173354       -1.5482587250        1.7124248217
 O        -9.2840001153        0.6498788802       -1.4252891231
 C        -8.4796748953        2.5662353992        0.1485331889
 C        -9.0137670410        3.5870626095        1.0826308204
 C        -9.4419419984        5.0292353780        0.4300521051
 C       -11.0273088912        4.7162968908        0.0676209619
 C       -11.8967820124        3.3445508603        0.3550799089
 O        -9.2621467204        3.3932094797        2.2179856251
 O       -11.6670962711        5.5591060254       -0.4423393652
 C        -9.2772749446        6.2463735988        1.3214907066
 C        -8.8014693049        5.1987106280       -0.9098417362
 H         2.1442001589        1.0321651211       -6.5368760514
 H         3.0386436882        0.2159372851       -5.2983403661
 H         1.8731440710        1.5438787570       -4.8966705329
 H         6.6264683598        4.6272526534       -4.2326881858
 H         4.7157261300        4.4598859850       -4.5110642420
 H         6.2721486880        0.6697990721       -6.9555029692
 H         4.5331187551        0.4378051065       -7.0398562874
 H         5.4787146779        0.0212797256       -5.6123608622
 H         4.8856598637        3.3090554781       -7.8761423192
 H         5.3110201654        4.1864451622       -6.7202848869
 H         6.4815428521        2.9006842087       -7.4652593415
 H         4.9658409476        2.9925488032       -2.3921975281
 H         6.6285358990        3.3866728610       -2.4740385528
 H         5.4739908690        4.0660087763        1.5764800062
 H         4.3073449947        3.2942485737        2.3211290505
 H         3.3272047049        5.2339706734        1.2643963289
 H         3.0674289973        6.3345585200       -0.0101516198
 H         4.7352033125        5.9475771190        0.7270641369
 H         1.8025312625        4.0718122495       -0.8508059196
 H         2.3077870996        4.8969297758       -2.1369533471
 H         2.8270339541        3.3207623065       -2.1419943478
 H         6.7521811860        2.6367749532        2.4064813076
 H         6.7297244766        1.8573702879        0.9051822281
 H         8.9888890531       -2.0047588698        1.8851968995
 H         7.1497163733       -2.4572677510        2.1393843651
 H         7.4977619439        1.8368252491        3.9125772004
 H         7.7960042960        0.7497524384        5.0662149334
 H         6.0977062913        1.4039462685        4.7762795859
 H         6.8786084005       -1.7163193204        4.5814688753
 H         5.1652934847       -1.1206904081        4.4849547252
 H         5.7466155938       -2.0817680675        3.2417695904
 H         8.4006472403       -0.7564357096       -0.3216391138
 H         8.4159793288       -2.4332424725       -0.4120446177
 H         3.6668966503       -4.4397440895       -1.5557902440
 H         3.8072304593       -3.8467032544        0.0098025761
 H         6.4924846547       -0.2750241105       -2.3296375677
 H         5.0373902946       -0.8791588630       -3.2370800679
 H         6.6592560512       -1.4109320589       -3.5919036891
 H         6.2095226361       -4.2796420563       -1.4884614125
 H         6.0705408053       -3.6368042214       -3.2716324553
 H         7.4557853796       -3.3290423031       -2.0711828759
 H         1.4103602903       -4.3343593410       -1.1799588677
 H         1.4808262921       -2.7435212875       -1.4983736856
 H        -2.6783443782       -4.6736472601       -0.4713812694
 H        -1.4967670474       -5.5190813882        0.5311402524
 H         0.6622551678       -5.6899221202        1.2256842338
 H         0.1222687710       -5.2215424541        2.8659514553
 H         1.6857998860       -4.9338716623        2.2565400066
 H        -0.0815750217       -1.4766357439        2.2068631179
 H        -1.0425759100       -2.5738165071        3.0079419843
 H         0.5914159832       -2.5830267124        3.3200568017
 H        -2.3938034346       -4.4194617131        2.5154693938
 H        -3.2010811880       -3.0765967532        1.6486084905
 H        -6.0421443006       -2.4770424892        0.7072822324
 H        -5.6746494245       -4.0300151385        0.1756071776
 H        -5.8113349998       -7.0978397689        2.3542624479
 H        -6.9109600845       -6.3215694896        3.6167344769
 H        -5.2254978122       -6.8657602600        3.9260167105
 H        -5.7651758471       -3.5711485853        4.2369056332
 H        -4.2364106724       -4.4409613075        4.5639246428
 H        -4.3557609808       -3.1342066707        3.4727550221
 H        -8.4683915375       -4.2658630168        0.2391313302
 H        -8.0174060801       -3.2203052407       -1.0403717696
 H        -9.2836689940        1.0716886266        1.7201167243
 H        -7.6879190806        0.7622869511        1.1059358052
 H        -9.8617501184       -1.9112581980       -2.1512626886
 H       -11.3800956269       -1.2823935662       -1.3228310327
 H       -10.8681104368       -2.9215248800       -1.0720097161
 H       -10.4698703092       -1.0356324999        2.1372253915
 H       -11.6196287949       -0.4081710252        0.8005988601
 H       -11.4442086495       -2.2287267685        1.2555738414
 H        -7.3626852048        2.7039854615        0.0531804765
 H        -8.8562025329        2.6858613715       -0.8564479838
 H       -11.4841657445        2.4500122842       -0.1415747924
 H       -11.7148024311        3.2789329131        1.4854227737
 H       -12.9128506182        3.6899992100        0.0421063446
 H        -9.0682619851        7.1514901726        0.7249738955
 H        -8.4509139396        5.9395812635        1.9545951241
 H       -10.1657182838        6.5223816008        2.0078591948
 H        -7.8421478998        4.6541235345       -0.9707900911
 H        -9.5103021755        4.8336268643       -1.7335519635
 H        -8.4877838222        6.2333148552       -1.0532805483
 Na        3.0959228213        0.1191258599        0.6675657265
