155

 C         2.6201408712        1.5334527942       -6.4753366159
 C         3.4861496208        2.6631549119       -5.8990728004
 C         5.0627937976        2.3700078970       -5.7773475700
 C         5.5944122031        2.3081659989       -4.3644028266
 C         5.9012098285        3.7004975967       -3.8282520968
 C         5.3880044057        1.0025302795       -6.5132053003
 C         5.7339148502        3.5244857200       -6.6825830881
 O         3.0123512147        3.6986183038       -5.5477027805
 O         5.6445696099        1.1811866394       -3.8531964205
 C         6.0554171192        3.6852886708       -2.3122906373
 C         5.4611503116        4.8550236478       -1.5337262890
 C         4.0856294508        4.5874500439       -0.7657128964
 C         4.3772180407        3.2796197099        0.0942272192
 C         5.0131805107        3.2660435224        1.4860208410
 O         5.8976629362        5.9370685053       -1.7496966319
 O         4.0187656011        2.2022229103       -0.3685168437
 C         3.5710040287        5.6936412087        0.2327111435
 C         3.0731709131        4.1989697748       -1.8788840650
 C         6.2114822107        2.3327109097        1.7286957641
 C         5.6561994350        1.1852375752        2.5297577483
 C         6.6563196848        0.0146852055        3.0843310734
 C         7.6648167947       -0.2002399839        1.8547913833
 C         7.7026934432       -1.7070232966        1.4456514499
 C         7.7222005928        0.3822339268        4.2159500120
 C         5.9043735689       -1.1892721020        3.5576941081
 O         4.4711740426        1.0456064720        2.6425947025
 O         8.2987793763        0.5827587267        1.2545119212
 C         7.6385264779       -1.9512501792       -0.0399080334
 C         6.1319047141       -1.9823406127       -0.3631091263
 C         5.6216336310       -2.6414067242       -1.6688889588
 C         4.0625708804       -2.4360347363       -1.6583899990
 C         3.1753012216       -3.5782549297       -1.3934419810
 O         5.4006310749       -1.4159579487        0.4870725064
 O         3.5465531075       -1.2911251601       -1.8277468656
 C         6.4199043089       -2.0737816592       -2.8218335107
 C         6.0514918057       -4.1830378951       -1.5944197469
 C         1.6770502172       -3.3128701920       -1.0407117430
 C         1.5003586768       -2.7691790823        0.3905587432
 C         0.3034070883       -3.4671361549        1.2010792123
 C        -0.9728297076       -3.4018426482        0.2685466990
 C        -1.9982806667       -4.4997533066        0.3859835351
 C         0.8958290150       -4.8960131874        1.5861974723
 C         0.0595425853       -2.6430957055        2.4591435459
 O         2.3208040994       -2.0387929792        0.9413884838
 O        -1.0222705683       -2.4913143487       -0.5241801373
 C        -2.9776357583       -4.3738039816        1.6247866720
 C        -4.2437410944       -5.2650789113        1.6886886568
 C        -5.2034783742       -5.2056007955        2.8442473557
 C        -6.6969003427       -4.5913276696        2.2171888882
 C        -6.4573363481       -3.9823482187        0.7815801633
 O        -4.5360066080       -6.0276906522        0.7396287588
 O        -7.5833486133       -4.4099145977        2.9595160324
 C        -5.6487856168       -6.5548596997        3.4106132928
 C        -4.7786123202       -4.1256697129        3.9204572447
 C        -7.7710568150       -2.9962534256        0.3102727257
 C        -8.4550976317       -2.0192926592        1.2087455946
 C        -9.7745782576       -1.2926352370        0.4393286964
 C        -9.2590616449        0.1536907515       -0.0534068776
 C        -8.8373101709        1.2966026293        0.9632989284
 C       -10.5617140382       -2.1764816390       -0.5770410584
 C       -10.7554203062       -0.9258281147        1.5887990780
 O        -8.1313467082       -1.5005761764        2.2571026956
 O        -9.3932110430        0.4858126350       -1.2166105779
 C        -8.2199346154        2.6776735338        0.2480883998
 C        -8.6898657015        3.8972718942        1.0258135988
 C        -9.5993806550        5.0863989539        0.3775084243
 C       -11.2584766858        4.8571441768        0.5406048172
 C       -11.9771032470        3.5586146320        0.7310015591
 O        -8.5622115791        4.0229280604        2.2148835863
 O       -11.9223922789        5.8962507101        0.4074585797
 C        -9.2978299012        6.4585979328        1.1349094839
 C        -9.2226750579        5.3737770745       -1.1518771854
 H         2.9913984104        1.3169054222       -7.4061519978
 H         2.5378747888        0.5433600076       -6.0397301001
 H         1.5981346993        1.8293558120       -6.6410752268
 H         6.7953319821        4.0902538909       -4.3683001704
 H         4.9614490229        4.1495568922       -3.8666336833
 H         6.3732991155        0.7570100497       -6.3296364132
 H         5.2355257378        1.0197726327       -7.6496404901
 H         4.8184801005        0.1456897909       -6.1044072220
 H         5.5050998994        3.4938419976       -7.7277298496
 H         5.3066072157        4.4725859579       -6.3618614355
 H         6.8264088678        3.4101551566       -6.5220918885
 H         5.7160819798        2.7116891095       -1.9565071406
 H         7.0638328063        3.7229134095       -2.0690071637
 H         5.1929441919        4.2469456753        1.7050595551
 H         4.1644517679        3.0234504043        2.0633385091
 H         2.4898081646        5.5628433912        0.5039329333
 H         3.7350561041        6.6382599646       -0.4106081286
 H         4.1445732162        5.8042188369        1.1343106761
 H         3.2649330738        3.9543421503       -2.9431116410
 H         2.5165016487        3.2916582749       -1.7388236152
 H         2.1367208309        4.8630620311       -1.9480001766
 H         7.0674777755        2.7029516396        2.2351566873
 H         6.5365593699        1.8608129023        0.7631208823
 H         8.7146430561       -2.0101441505        1.7594060756
 H         7.1105788073       -2.5499178160        1.9661642275
 H         8.7862909744        0.6609826364        3.9235683666
 H         7.8755865064       -0.4812941739        4.8847098994
 H         7.3479066462        1.0269183646        4.9371788346
 H         6.5023720646       -2.0422972630        3.9334345221
 H         5.3517146173       -0.8512063068        4.5121202864
 H         5.1932810661       -1.4613300264        2.7848818181
 H         8.2074875405       -1.1722029200       -0.5927712456
 H         8.2211479121       -2.8656640271       -0.4446177920
 H         3.0994527538       -4.1524081025       -2.3351010677
 H         3.6047432619       -4.3072009399       -0.8115619833
 H         5.8572256576       -2.1050139282       -3.6919200676
 H         7.2989961681       -2.6946973855       -2.9784359580
 H         6.7844407201       -1.0277550173       -2.6282141810
 H         5.9758750322       -4.4039304297       -0.4936655389
 H         5.4790782836       -4.7579079197       -2.3202856730
 H         7.1006558064       -4.1860344034       -1.8108245760
 H         1.3319451164       -4.3865660054       -1.0371221179
 H         1.1719267874       -2.8558283955       -1.8603384101
 H        -2.6057309905       -4.3738748310       -0.5334340549
 H        -1.6501424904       -5.5634537000        0.3468738714
 H         1.5618280387       -5.3758458485        0.8826466549
 H         0.0647469305       -5.4399208098        1.7956594082
 H         1.3742720640       -4.7954079276        2.5537500427
 H        -0.6874250048       -1.8816678586        2.4354992980
 H        -0.4754380903       -3.2814445626        3.1853958035
 H         0.8201311706       -2.1748315506        3.0140326744
 H        -2.3160283888       -4.3481229931        2.4802485858
 H        -3.4179207552       -3.3669089851        1.3868186882
 H        -5.5443306749       -3.4631837479        0.9859100972
 H        -6.2111615500       -4.6548647103        0.0012798712
 H        -6.1441884539       -7.1098646136        2.6281435349
 H        -6.2586545013       -6.4575902891        4.2235428245
 H        -4.8623002137       -7.2432418987        3.7300336551
 H        -5.7084579934       -3.9153956316        4.3694562194
 H        -4.0070770761       -4.3622000217        4.6888076731
 H        -4.5983729709       -3.1986581587        3.4075985985
 H        -8.5054923791       -3.7053482998        0.1269902594
 H        -7.5632906096       -2.4934560912       -0.6586492102
 H        -9.8123246230        1.4419650833        1.5143549461
 H        -8.1242072760        1.0032998671        1.7419680836
 H        -9.8870185750       -2.3238341956       -1.2936468058
 H       -11.4628018354       -1.7260066337       -1.0788232345
 H       -11.0848890074       -3.0939124650       -0.0841144904
 H       -10.3711692349       -0.2989572344        2.4001298198
 H       -11.6795806764       -0.4861583270        1.2102574278
 H       -11.3246424807       -1.8127161640        2.0035402664
 H        -7.1482981676        2.5850795603        0.1120157252
 H        -8.7297907000        2.7990404261       -0.6693202461
 H       -11.6001922534        2.8202400161       -0.0049082459
 H       -11.5691139128        3.1772914556        1.7329515841
 H       -13.0190408683        3.9255002982        0.7266767395
 H       -10.1703557471        7.0556604970        1.0334692429
 H        -8.3989453535        6.9842320393        0.8562869658
 H        -9.1128064140        6.1859192817        2.1905066409
 H        -8.5761410835        6.2565271231       -1.3535730933
 H        -8.5945678820        4.5501511560       -1.5081793335
 H       -10.0622044026        5.2813518143       -1.7866770867
 Na        3.6307373864       -0.0045342141        0.1612152503
