155

 C         2.5741541359        1.7555910271       -6.8864698390
 C         3.4615779888        2.7059271209       -6.0895884061
 C         5.0299253541        2.4147938290       -5.8820609809
 C         5.4107870769        2.3299642366       -4.2781777001
 C         5.8588027303        3.7801090764       -3.6141703953
 C         5.5051195392        1.0583073354       -6.6532907442
 C         5.9553967851        3.5828259438       -6.5524749193
 O         3.0099006100        3.6926993097       -5.5380144913
 O         5.3197156994        1.3052778063       -3.6684237838
 C         6.2135332552        3.5967832754       -2.0671541083
 C         5.5478235907        4.7689437174       -1.4854152724
 C         4.0200003169        4.5233431151       -0.9151413573
 C         4.3450239461        3.2529839344        0.2113684361
 C         5.1569581549        3.5884444292        1.5008461965
 O         5.9455486280        5.8629858935       -1.8027429629
 O         4.1513810577        2.0891477697       -0.0684238791
 C         3.7293925950        5.9538523652       -0.3429944939
 C         3.0749278448        4.0250228927       -1.9351755886
 C         6.0555086019        2.3893115977        1.7464597515
 C         5.6142075043        1.0938308592        2.4832979411
 C         6.6622521317        0.0282050165        2.8620068836
 C         7.6740025241       -0.4437556871        1.7578037833
 C         8.1954537981       -1.8875268433        1.4261778028
 C         7.4490999406        0.8765077514        3.9264137713
 C         5.9286713684       -1.1334300282        3.5134717366
 O         4.4596150656        0.9940646492        2.9294793237
 O         7.9849022381        0.4743500870        0.9366144574
 C         7.7411317938       -2.3591375716       -0.0751894647
 C         6.2751626119       -2.1512946679       -0.3691963417
 C         5.5847981237       -2.9612921459       -1.6977694476
 C         4.0789080507       -2.6631833954       -1.7853171352
 C         2.8569750708       -3.6120724332       -1.7160444778
 O         5.7687517332       -1.3002476625        0.3060789631
 O         3.7999358760       -1.5457731676       -2.0141563730
 C         6.1431701894       -2.2581643926       -2.9771315806
 C         5.8121902323       -4.4611479211       -1.4470839274
 C         1.4993410681       -2.9622112771       -1.2385296742
 C         1.3982660359       -2.7896504462        0.2451638721
 C         0.2729950006       -3.5534951693        1.1788363174
 C        -1.0924684370       -3.5106175270        0.3282387111
 C        -2.0410519081       -4.6269720393        0.4336975831
 C         0.6757471300       -5.0402650859        1.5640360450
 C         0.0469186374       -2.6982939552        2.3497958618
 O         2.1442334136       -2.0077246907        0.7898311217
 O        -1.4557663633       -2.4750396300       -0.2373239229
 C        -2.9176510726       -4.3226744787        1.7278935557
 C        -4.1598673030       -5.0946114070        1.6586193265
 C        -5.1333343600       -4.9773096650        2.8237724440
 C        -6.6807758532       -4.4751941716        2.2844360019
 C        -6.6231953997       -3.5350165414        0.9413878187
 O        -4.4272275614       -5.7981847734        0.7442082972
 O        -7.6768287346       -4.8726818525        2.8534855430
 C        -5.3728657564       -6.4608863999        3.2652867817
 C        -4.6017779519       -4.2843729130        4.1641308723
 C        -7.9596678637       -3.0975427047        0.5209181766
 C        -8.4430683531       -1.8258704538        1.3223023832
 C        -9.7702686808       -1.1486611899        0.8206483650
 C        -9.3826509573        0.2526365147        0.0196743195
 C        -9.0935499760        1.4076810471        0.9841690864
 C       -10.4469601845       -1.9119284895       -0.2653466317
 C       -10.6326078451       -0.8619917148        2.0437430173
 O        -7.7243981175       -1.6400194171        2.2779975871
 O        -9.3202866505        0.3472645501       -1.1861482132
 C        -8.6493534782        2.5863664463        0.1842640394
 C        -8.7732822737        4.0008609121        1.0527497538
 C        -9.6339037924        5.0998050960        0.4384084070
 C       -11.1820138595        5.0780496833        0.7861717655
 C       -11.7316857487        3.4912349671        0.8288448586
 O        -8.2574052071        4.1367949179        2.1235542495
 O       -11.9252806468        6.0064824218        0.7365880561
 C        -9.1910326363        6.4948242357        1.0885775418
 C        -9.5062980641        5.1011500345       -1.0838951348
 H         2.8542584695        1.1731731798       -7.8548564560
 H         2.2606879627        0.9135654290       -6.1894829031
 H         1.5771509990        2.1390666471       -7.0786101573
 H         6.8025420517        4.0140528573       -4.0541789149
 H         5.0756269988        4.5739786420       -3.6752241564
 H         6.5905432946        0.7430523523       -6.4274734463
 H         5.3997670824        1.0298863913       -7.6930580082
 H         4.8892061769        0.2926721312       -6.1782556344
 H         5.8072904113        3.4859052630       -7.6452271643
 H         5.4795827437        4.5098796014       -6.1259940921
 H         6.9605684247        3.5707029391       -6.1970688534
 H         5.7736870302        2.6646738333       -1.7252696942
 H         7.3496929366        3.5228445050       -2.0567253154
 H         5.7020036648        4.5838898950        1.1719826285
 H         4.4770321381        3.7499171470        2.3857815573
 H         2.6777935390        5.9967835642       -0.3829505369
 H         4.1868350933        6.6689510875       -0.9776078158
 H         4.0353042453        6.1292815937        0.7053291252
 H         2.7204900121        3.0208489475       -1.8590089309
 H         2.1231716687        4.4836676933       -2.1114475191
 H         3.3869552959        4.1285513910       -2.9112634253
 H         6.9134429989        2.6849922687        2.3698065514
 H         6.4516287170        1.9885239455        0.8289400035
 H         9.2805071585       -2.0965200927        1.4983283153
 H         7.8093399246       -2.5696564255        2.1519076525
 H         7.6510625541        1.8062805110        3.5242739784
 H         8.4074711293        0.5408829215        4.3357519257
 H         6.8466025609        0.9190977980        4.9046212941
 H         6.5293312445       -1.8115003459        4.0895058279
 H         5.2679089014       -0.7359685980        4.1954180902
 H         5.3850398941       -1.6688357905        2.7189404181
 H         8.2676461483       -1.6247481238       -0.7461258203
 H         8.2441301174       -3.2300883166       -0.4371057018
 H         2.8089595744       -4.0704401160       -2.6992331605
 H         3.0891602441       -4.6181929773       -1.1389159597
 H         5.9382623474       -1.1268950559       -2.9043541283
 H         5.6536963391       -2.6753802110       -3.8851147375
 H         7.2052978628       -2.3999282320       -2.9619004772
 H         5.0079730277       -4.8169133636       -0.8462993581
 H         5.8792151075       -4.8689514765       -2.4799196450
 H         6.8185727662       -4.5271082927       -0.9602964412
 H         0.6723311994       -3.4823637752       -1.7170274909
 H         1.6630094787       -1.9196453980       -1.6336789408
 H        -2.7333797399       -4.5658938373       -0.3975265020
 H        -1.6692096129       -5.6580891425        0.4927711903
 H         0.7652228139       -5.6840755540        0.6530705102
 H        -0.2928460641       -5.4193324037        2.0907120380
 H         1.5438478686       -5.0028728351        2.2562393116
 H        -0.1358205479       -1.6151175513        2.2028187330
 H        -0.7926339937       -2.9328206268        2.9550443133
 H         0.8841307991       -2.6461290009        3.0731203599
 H        -2.3135583948       -4.5672942910        2.6037404079
 H        -3.0399606563       -3.2643467471        1.7482708152
 H        -5.8740118720       -2.6893839369        1.1270005713
 H        -6.2651017792       -4.0895048725        0.0394053728
 H        -5.9597268284       -6.9682068035        2.4522551809
 H        -6.0656081165       -6.5524435195        4.2020039358
 H        -4.4990653031       -7.0956078692        3.5157323210
 H        -5.4999918609       -3.8314343253        4.7087667199
 H        -4.3435495943       -5.0500701202        4.8197188626
 H        -3.7335520223       -3.6314401623        4.0160486034
 H        -8.5768894580       -4.0526928924        0.6419054464
 H        -7.8578614651       -2.9513271062       -0.5419766154
 H       -10.0138217158        1.4857803625        1.5569231344
 H        -8.3577330860        1.3817122513        1.7583426933
 H        -9.9139243375       -1.9129228429       -1.2948138766
 H       -11.3476306932       -1.3132271568       -0.4703403574
 H       -10.8073610668       -2.8196683373        0.0812837437
 H        -9.9223080374       -0.4098557379        2.7914475548
 H       -11.5531593633       -0.2574135435        2.0068002685
 H       -11.1283792295       -1.7582915696        2.4037498766
 H        -7.6296192275        2.4468375907       -0.2381171890
 H        -9.4014575633        2.6080169980       -0.6551565102
 H       -11.3369237093        3.1972695462       -0.1418676988
 H       -11.2811951969        2.8593362978        1.5777093347
 H       -12.8100654516        3.5671916318        0.8648534882
 H       -10.0521452435        7.2394024791        1.0468111161
 H        -8.3307286278        6.9637263973        0.5627808285
 H        -8.7960817941        6.2879817395        2.0881089997
 H        -9.9104630676        6.0161152460       -1.4692641647
 H        -8.4826477695        5.1297006752       -1.5236302674
 H       -10.0016549409        4.1750596084       -1.5177004604
 Na        3.9217368331       -0.0671491655       -0.0024409589
