155

 C         3.0777928313        2.5899270817       -7.6703483318
 C         3.7257680239        3.0496316187       -6.3754037678
 C         5.3074225473        2.5770374278       -6.0752227309
 C         5.2953249679        2.3700878903       -4.5405418532
 C         6.0617813276        3.5410002363       -3.8043620507
 C         5.3085844595        1.0947630744       -6.6122624348
 C         6.3038825641        3.4023333355       -6.9147938203
 O         3.1848827995        3.6815488589       -5.4701383411
 O         4.7480739781        1.3912708726       -4.0690727128
 C         6.2169687851        3.2536247590       -2.2903642966
 C         5.6659869344        4.4055988922       -1.4625523339
 C         3.9740184070        4.3159660693       -1.0195006507
 C         3.9669465351        3.1801377644        0.0535203556
 C         4.9090276156        3.3975989355        1.2126842160
 O         6.4589132549        5.2948514899       -1.1550022133
 O         3.3215410055        2.1575277601       -0.0674798684
 C         3.6628009261        5.8403450981       -0.2752829510
 C         3.1465503805        3.9315751987       -2.1901905122
 C         6.1209290188        2.5052058619        1.4214288408
 C         5.7250935439        1.1434281027        1.9331546740
 C         6.8600323765        0.0646528634        2.3955374519
 C         7.5807859722       -0.4652899887        1.0676233757
 C         8.2061494847       -1.9129993269        1.2186649704
 C         7.9593046741        0.7536201165        3.2222923420
 C         6.3683210696       -1.0519029353        3.3115314079
 O         4.5632764312        0.8452673009        2.1353766576
 O         7.6142635157        0.0207241557       -0.0279797612
 C         7.7081555438       -2.8965778296        0.0923388706
 C         6.1824180681       -2.4878930813       -0.2510734209
 C         5.4669582538       -3.3384996919       -1.4601499356
 C         4.0164760085       -2.6972935673       -1.8790427361
 C         2.7244356115       -3.5652091924       -1.7867970865
 O         5.6424410584       -1.7064168072        0.4654393799
 O         3.9901032748       -1.5928911761       -2.3668432421
 C         6.2741757393       -3.0666830437       -2.7923005914
 C         5.3477757974       -4.8743695611       -1.1565004030
 C         1.4696238173       -2.6722500672       -1.4471672238
 C         1.3484175420       -2.3801266765        0.0459841504
 C         0.4410070562       -3.3478634159        0.9877332000
 C        -0.9692581205       -3.2121180756        0.3450098393
 C        -2.1683780353       -4.3149251850        0.5264075790
 C         0.8755618541       -4.8181602655        0.9439813888
 C         0.5833204395       -2.7427283585        2.3697161772
 O         1.7077955583       -1.3148361996        0.5798948223
 O        -1.1733071435       -2.1755378168       -0.3103307609
 C        -2.8847071878       -4.2924994164        1.8170636233
 C        -4.1644079243       -5.0779127661        1.7031585531
 C        -5.1994479145       -5.2487382226        2.8803745974
 C        -6.6604388423       -4.9103819905        2.2667643195
 C        -6.7304338758       -3.6921079698        1.3385990792
 O        -4.3761882393       -5.8442530517        0.7689394903
 O        -7.5579748846       -5.6191800064        2.6752044142
 C        -5.2496698882       -6.7128545438        3.1852654291
 C        -4.9046829603       -4.3078116199        4.1110271647
 C        -8.0808955802       -3.0086394789        1.3086758319
 C        -8.2796618586       -1.6462462882        1.9483024183
 C        -9.6343600597       -0.9182537043        1.6404478154
 C        -9.4935116632        0.1634848506        0.5902199065
 C        -9.3730779296        1.6225278141        1.1484158945
 C       -10.7921448857       -1.8840972429        1.1648802148
 C        -9.9829364775       -0.3429181240        2.9823328897
 O        -7.3349732083       -1.1320607089        2.5934606709
 O        -9.2476976841       -0.1084907669       -0.5244829533
 C        -9.2250397150        2.7792551940        0.1401810594
 C        -8.9732550677        4.1445799840        0.9331766248
 C        -9.7772659995        5.4210998330        0.6016639348
 C       -11.1743434051        5.3404788107        1.4075371419
 C       -12.1965310637        4.1414206752        1.2009461976
 O        -7.9874024650        4.1019500884        1.6323926750
 O       -11.5107236070        6.2790026903        2.0394439766
 C        -8.9081032720        6.7083214474        0.6323279476
 C       -10.1993706268        5.3734064771       -0.9666875213
 H         2.9433743810        3.5758333791       -8.2175389529
 H         3.5545062993        1.9006845739       -8.2798855352
 H         2.0017945063        2.3652028809       -7.7293065651
 H         7.1249534107        3.5679909399       -4.2339626234
 H         5.8226982951        4.5867260677       -4.0033913645
 H         6.1614004687        0.5760083127       -6.1892625910
 H         5.4204839962        1.1458424109       -7.7718143922
 H         4.4487683848        0.5212845398       -6.2696730972
 H         6.1620386244        3.1753913782       -7.9832885214
 H         6.3958850657        4.4848806158       -6.6023381789
 H         7.3397451609        3.0697270164       -6.5656180723
 H         5.7814328270        2.2173628574       -2.0085465929
 H         7.2822149816        3.2626287139       -2.0750346477
 H         5.4219130287        4.3206003048        1.0165257455
 H         4.1360964088        3.4015809085        2.0593612669
 H         3.5526401012        5.6834523169        0.7842859412
 H         2.8177525431        6.2266717230       -0.7519396665
 H         4.5352041312        6.4838384221       -0.5090589362
 H         3.5378209670        4.1677734800       -3.1932145712
 H         3.2168491103        2.8031298861       -2.3633358824
 H         2.1493210973        4.1629811240       -2.3775331789
 H         6.6791100999        3.0785698683        2.2367610879
 H         6.8466832080        2.3826749370        0.5370646950
 H         9.2967527120       -1.7345136162        1.0566355421
 H         8.0729548186       -2.3404822304        2.1418129586
 H         8.4710699875        1.6628172420        2.8280005076
 H         8.7051231603        0.0135975489        3.4670652281
 H         7.4177461188        1.0796338862        4.1326736662
 H         7.0792302582       -1.7249645030        3.7068319666
 H         5.7980270007       -0.4903797061        4.0572998140
 H         5.6528198276       -1.6176595686        2.7908068209
 H         8.5189651926       -3.0199984123       -0.5421931129
 H         7.5780108663       -3.8312930606        0.6519511305
 H         2.4695498720       -4.1841702056       -2.7262216633
 H         2.8996908618       -4.2127435729       -1.0232071775
 H         5.6661375416       -2.8176741587       -3.6720098625
 H         7.0774130097       -3.8534052719       -2.9147352507
 H         6.8427837384       -2.1631112582       -2.6090733784
 H         4.4663929865       -5.0415586719       -0.4655700653
 H         5.1636806450       -5.2532966367       -2.1263177537
 H         6.4151389771       -5.0425943287       -0.9139245687
 H         0.6302395344       -3.2546426934       -1.8017261633
 H         1.7820156398       -1.6942826283       -1.9197520706
 H        -2.9776455885       -4.0896260576       -0.1645980122
 H        -1.9815967814       -5.3200214073        0.3692219607
 H         0.5231080694       -5.2923895569       -0.0110145468
 H         0.1334241266       -5.1703283474        1.7996993453
 H         1.9361085201       -4.8132563848        1.2811169774
 H         0.0951697371       -1.7883016081        2.3512401340
 H         0.0632113946       -3.2555327082        3.2220352365
 H         1.5232707419       -2.4854566996        2.8385361373
 H        -2.2430481941       -4.6239312557        2.6294763698
 H        -3.0781562605       -3.2403542859        2.2015729187
 H        -5.8418603045       -3.0160323229        1.5583156922
 H        -6.5538025024       -4.0898267934        0.2500286607
 H        -5.9384190537       -7.3267804387        2.5814987856
 H        -5.6872709289       -6.8380432562        4.2440967055
 H        -4.2524444503       -7.2277855562        3.1373411109
 H        -5.8198608239       -4.1338143223        4.7174509040
 H        -4.1480393876       -4.8760143022        4.7592087824
 H        -4.4729761660       -3.3075082955        3.7933885765
 H        -8.8704085148       -3.6106772877        1.7874331215
 H        -8.4340544076       -2.8660675702        0.1994113980
 H       -10.2774648821        1.5891120864        1.7892117477
 H        -8.5058602068        1.6191221045        1.9869461015
 H       -10.2802745948       -2.4346891599        0.2390748380
 H       -11.6506078969       -1.3503866064        0.9418259263
 H       -10.7833629870       -2.6712762838        1.8118613601
 H        -9.2769206188        0.2479698285        3.4411532570
 H       -10.7897536175        0.3287358529        2.9268004861
 H       -10.0773193206       -1.0335673627        3.6727597452
 H        -8.3859838003        2.3848715644       -0.4898129363
 H       -10.0757008851        2.7822525887       -0.5361813329
 H       -12.4940461928        4.2000610986        0.1719409874
 H       -11.6996722136        3.3288170951        1.5504162330
 H       -13.0803498228        4.2518839486        1.7655777704
 H        -9.4422626513        7.6481752727        0.8172839140
 H        -8.4404595814        6.7114714226       -0.4091624957
 H        -8.1693916342        6.6816068541        1.4154383475
 H       -10.1551622528        6.3235266981       -1.5859046493
 H        -9.6874261373        4.6261729934       -1.5319937116
 H       -11.2762149594        5.1958251921       -1.1213145523
 Na        3.6297694381       -0.0800804084        0.1408266156
