155

 C        -2.0142925129       -8.4278101765        4.2601091390
 C        -1.0909713356       -7.3307802856        3.8072738201
 C        -0.1933400444       -6.7568137204        4.7826797501
 C        -0.0187248835       -5.1938937305        4.6600894770
 C        -0.9156899676       -4.2623869756        3.7663957175
 C        -0.6544189228       -7.1504741893        6.2201029757
 C         1.0488598127       -7.6252954360        4.5052200019
 O        -1.1060439816       -6.8951796648        2.6597516111
 O         0.7519667477       -4.5821526275        5.3268655107
 C        -1.3719308868       -3.1096552150        4.6011759576
 C        -2.2029169445       -2.1599598374        3.7650004598
 C        -2.7189305001       -0.8709944717        4.4311221036
 C        -3.0221832893        0.3152040978        3.3479772091
 C        -1.7947750158        0.7700746510        2.4001420338
 O        -2.5067788842       -2.4025974564        2.6229927891
 O        -4.1106013903        0.8454043286        3.2384538428
 C        -4.0367007851       -1.2084468798        5.1595158828
 C        -1.6370251665       -0.3341867164        5.4034916671
 C        -2.1294029830        1.7288031904        1.2475619389
 C        -0.9061222612        2.0321562512        0.3065654562
 C        -0.6531385831        3.4765955255       -0.4041057432
 C         0.5852096848        4.0909111578        0.3000701326
 C         0.4986470775        5.3952508121        1.0424877026
 C        -0.3068253418        3.2621112258       -1.9045100092
 C        -1.9253839174        4.4090352025       -0.3889664781
 O        -0.2454395440        1.0997753094       -0.0759869232
 O         1.6960297587        3.6616444347        0.0395664220
 C         1.4011821315        5.4266385786        2.2290885536
 C         1.1354200900        4.3914281981        3.3332928650
 C         2.0519811973        4.4835369372        4.6937901865
 C         3.4286330602        3.7775103496        4.3709423093
 C         3.4367081555        2.2346281439        4.2837372386
 O         0.2552744215        3.5605825653        3.2320688293
 O         4.4327040270        4.4628874057        4.2074989433
 C         2.2600336088        5.9369164267        4.9853088073
 C         1.2915084453        3.7335023245        5.7257781624
 C         4.5696669211        1.7614969707        3.4566539001
 C         4.4186500004        1.7122876534        1.9823486510
 C         5.5795739042        1.6965170438        1.0106178927
 C         5.2678100356        0.7066631848       -0.2011432395
 C         6.1790705676        0.7700309021       -1.3864262578
 C         5.6770318080        3.1302222164        0.3668330735
 C         6.9591457747        1.1457671297        1.6224741153
 O         3.3112512977        1.8595510023        1.4886560815
 O         4.2594177862       -0.0239793074       -0.0618221878
 C         5.5974633594        0.2338849055       -2.6934029176
 C         4.1463512086        0.8139469138       -3.0320648439
 C         3.2620097625        0.2034247832       -4.1825933742
 C         2.0689022517       -0.5263754314       -3.4292525152
 C         1.6022099155       -1.9203769988       -3.8455453303
 O         3.8125328621        1.7530481967       -2.3420122702
 O         1.5369966605        0.0293660713       -2.5071634566
 C         2.7244697077        1.3797621890       -5.0354892358
 C         4.0087139291       -0.8405824848       -4.9934177960
 C         0.3175656399       -2.3006583830       -3.1986043352
 C        -0.8633498260       -1.8557940064       -4.0847522971
 C        -2.3204136900       -2.3308309157       -3.6042237846
 C        -3.4226690544       -1.3327382670       -3.8056748047
 C        -4.1170140331       -1.1182306896       -5.1740687558
 C        -2.5544289335       -3.6022260687       -4.4495405364
 C        -2.3800279667       -2.7865780031       -2.0706621496
 O        -0.6939308539       -1.2680965850       -5.1317163987
 O        -3.7914280880       -0.6736737674       -2.8647674469
 C        -5.6195964540       -0.8494861791       -5.1772743832
 C        -6.1096446160        0.0263983526       -6.4042464680
 C        -7.6428789219        0.4905692489       -6.4029048588
 C        -8.2439030138       -0.2230301986       -7.6901306501
 C        -9.7859315271       -0.3512339670       -7.8003668770
 O        -5.3668519277        0.4618010291       -7.2322450088
 O        -7.5585250555       -0.5772783000       -8.6389047378
 C        -8.4051883672       -0.1389961577       -5.1678396482
 C        -7.6913876756        1.9382941987       -6.4754489633
 H        -2.8236361458       -8.1521767939        4.8900018812
 H        -2.5841636810       -8.8547096201        3.4826421566
 H        -1.5448923858       -9.2254031283        4.8490250713
 H        -0.3982358974       -3.9438185117        2.9124538019
 H        -1.7157032680       -4.8869837804        3.3928173070
 H        -1.6863499319       -6.8064641104        6.5145018194
 H         0.0115994434       -6.7284237277        7.0528300472
 H        -0.6232484973       -8.1925809700        6.3765828249
 H         1.4691146627       -7.4733280198        3.5702787840
 H         1.9211054062       -7.3258017373        5.2109991369
 H         0.6551742193       -8.7107180189        4.6793174793
 H        -1.9416835306       -3.4390028621        5.4056362534
 H        -0.5269906689       -2.6956576078        5.1971080889
 H        -1.0159815440        1.2644287226        3.0636773611
 H        -1.2705829611       -0.1321351281        1.9269296343
 H        -4.0919472808       -0.3707639172        5.8551071785
 H        -3.8169832185       -2.0321673914        5.9051071847
 H        -4.8943200570       -1.4327395830        4.5426302672
 H        -1.5051042244       -1.1934831777        6.0594714100
 H        -0.6847731786       -0.2260948878        4.8391929803
 H        -1.9425951328        0.5191784772        6.0182649174
 H        -2.5616689660        2.6860912594        1.5266290601
 H        -2.8349529850        1.3493201207        0.4986737572
 H         0.8066350264        6.1634414258        0.3447661045
 H        -0.5194384402        5.6930072372        1.2209770216
 H         0.2052840767        2.3900014909       -2.3046902820
 H         0.2252939608        4.1719448454       -2.2911516929
 H        -1.2675087463        3.1810865806       -2.4737547725
 H        -2.6529339766        3.8867960769       -0.9935904351
 H        -2.2280652746        4.6297205342        0.6288149978
 H        -1.6561093692        5.3317963865       -0.8592762735
 H         2.4379705508        5.2817586168        2.1067945766
 H         1.3360129504        6.4698521919        2.7148414442
 H         3.4340362952        1.8006677561        5.2654849542
 H         2.4886115422        1.9470093300        3.7412702523
 H         2.8983599909        6.4729622455        4.2033097918
 H         2.6702513407        6.2238005014        5.9579989575
 H         1.2755455992        6.4318062045        4.9124591187
 H         0.3533878514        4.1953681232        5.9373421398
 H         1.1993319873        2.7375145225        5.2972141544
 H         1.9518787469        3.5714949966        6.6024592981
 H         4.9978461659        0.8247192887        3.7595580504
 H         5.4100068577        2.4628334623        3.5260476979
 H         6.6069638334        1.7887444170       -1.6257566837
 H         7.0263625546        0.1564180994       -1.0800102330
 H         5.0073283017        3.0567033842       -0.4833586509
 H         6.6981535575        3.2417317112       -0.1654057322
 H         5.6358908740        3.9139607511        1.0429504599
 H         7.7462778164        1.0919863506        0.9185897450
 H         7.2505595798        1.7934286861        2.4850567673
 H         6.9756667800        0.1178456053        2.0378085572
 H         6.2659963142        0.5089887907       -3.4435345748
 H         5.6823499449       -0.8785192612       -2.7732539014
 H         1.6190037566       -2.0905950006       -4.9087653261
 H         2.3667264704       -2.6445237364       -3.5707401580
 H         1.9471428429        1.9218223179       -4.4411816008
 H         2.2327458891        1.0104893907       -5.9992414347
 H         3.5321074645        2.0888831536       -5.2750108561
 H         3.2443738317       -1.3037308140       -5.6661985107
 H         4.6753265923       -0.4022218314       -5.6206882906
 H         4.5217799139       -1.6352556145       -4.4595270874
 H         0.1703558954       -1.6579955523       -2.2604707968
 H         0.2172045755       -3.3854405002       -3.0191339513
 H        -3.5700996038       -0.2236811644       -5.5769116166
 H        -3.9830395017       -1.9281210856       -5.8654940738
 H        -2.0959302739       -3.5176963901       -5.4022461189
 H        -3.6291294627       -3.9322997665       -4.6477311078
 H        -2.0759924012       -4.4647735616       -3.9216632191
 H        -2.2280904155       -1.9698464923       -1.4366564373
 H        -3.2366305572       -3.3352679252       -1.7855257747
 H        -1.4719189811       -3.4373572290       -1.8678327265
 H        -6.1012866866       -1.8286571534       -5.0467448097
 H        -5.7434636055       -0.1546259188       -4.3458940214
 H       -10.3392879185        0.5601849227       -7.6550977776
 H       -10.1042117878       -0.7613495854       -8.7472654594
 H       -10.1537137901       -1.1177702520       -7.1377006162
 H        -7.9337187653        0.0647219730       -4.2400893849
 H        -8.6152823929       -1.1618718240       -5.1246808251
 H        -9.3820406877        0.3433525826       -5.2110568943
 H        -8.6109459482        2.4777087670       -6.8004684679
 H        -7.2949907508        2.3106688501       -5.5246395108
 H        -6.8781844308        2.1899597618       -7.1856586988
 Na        2.1872538593        1.3928930628       -0.4257454430
