155

 C         5.6672288987        5.8146423118       -8.5063713522
 C         5.2686474555        4.4736728207       -7.6034246587
 C         6.2013473952        3.1026140138       -7.6727718100
 C         5.5218506925        2.1399739757       -6.7151138230
 C         5.7694747537        2.4648648830       -5.1897940205
 C         6.3058208359        2.5954277469       -9.2627781415
 C         7.7193460228        3.5160941248       -7.3845636199
 O         4.3191435743        4.4876246495       -6.8794065088
 O         5.1073018232        1.0680108506       -6.9597754702
 C         4.4999492946        3.0130794809       -4.3472630926
 C         5.0852499666        3.1594670792       -2.8547182089
 C         4.0685828577        3.5525574988       -1.7037237266
 C         4.1260804804        2.2367143897       -0.8362343029
 C         5.0970727147        1.9733291430        0.2827565354
 O         6.2881650606        3.1534665494       -2.5649642568
 O         3.2308350437        1.4041462309       -1.0585613809
 C         4.6415845188        4.6940387478       -0.8423102632
 C         2.4899188507        3.7375169602       -2.0780292582
 C         6.2875676537        1.0688361773       -0.0524749320
 C         6.9999194604        0.6245194427        1.2543389805
 C         8.4622748781        0.0437966056        1.1168455474
 C         8.2462766647       -1.1919476642        0.2310872522
 C         7.6484927128       -2.5291532381        0.8410888223
 C         9.4106767564        1.1667236288        0.6410084719
 C         8.8813405218       -0.3628503568        2.5810461996
 O         6.3511019485        0.5459831740        2.2982213336
 O         8.5289806934       -1.1652391182       -0.9894248448
 C         7.1804376307       -3.4729110881       -0.2374504967
 C         5.7308135636       -3.0066812231       -0.7285228192
 C         5.1506765662       -3.2705443774       -2.1772812216
 C         3.5123235947       -3.0556393787       -1.9712896671
 C         2.5641171715       -4.0679067237       -1.2150616202
 O         5.1219199798       -2.2727749917       -0.0284157247
 O         3.0741137932       -1.9815928200       -2.3591366514
 C         5.6854509296       -2.0621800352       -3.0435884090
 C         5.6445614612       -4.6410796712       -2.7022219684
 C         1.1138356352       -3.5398139422       -1.0132168978
 C         0.7594685097       -2.9657575983        0.3284588918
 C        -0.6098571209       -3.3477099517        1.1534273039
 C        -1.7790519054       -2.5016882457        0.6704768785
 C        -3.1135420792       -3.1709869823        0.1996248195
 C        -0.8873028783       -4.9600795296        1.0285327671
 C        -0.3698730937       -3.1158015127        2.6697765409
 O         1.4208592259       -1.9671023360        0.6928366543
 O        -1.6290467498       -1.2708558543        0.6171217998
 C        -3.9562064605       -3.4245970120        1.3699942883
 C        -5.1021150131       -4.6356065690        1.0929487252
 C        -6.0829191536       -5.1254467602        2.2442413571
 C        -7.2245902134       -4.1762890721        2.6869091044
 C        -6.9408124867       -2.6908816249        2.5638416099
 O        -4.9901492778       -5.1109008175       -0.0000866231
 O        -8.3049983864       -4.5874413701        3.0911433276
 C        -6.6252540027       -6.3968057755        1.5730668943
 C        -5.3908694040       -5.5206883697        3.5454754746
 C        -8.0365296669       -1.8267326399        3.2544254797
 C        -7.6146738725       -0.6743819508        4.2215613696
 C        -8.6330403965       -0.2770829421        5.2760518284
 C        -9.5976667627        0.8039365284        4.7496432158
 C        -9.1451093185        1.5362144925        3.4626081154
 C        -9.3490495574       -1.4073814812        5.9433049348
 C        -7.8434331689        0.5917228265        6.3671139484
 O        -6.4687455034       -0.2786893625        4.2033185747
 O       -10.6663635456        1.0094548692        5.3724891327
 C       -10.1549574207        2.5884914807        3.1033048108
 C        -9.9951304494        3.3391341037        1.6923209503
 C       -10.9288779366        4.7256120374        1.1572967094
 C       -10.1973174981        6.0515323369        1.7985193324
 C       -10.4097700350        7.4055675243        0.9414178570
 O        -9.1218502627        3.0323216360        0.9486239280
 O        -9.4723590660        5.9664844113        2.7304875275
 C       -10.7190714421        4.8110911115       -0.4371817481
 C       -12.4638265036        4.6127972804        1.5117471867
 H         4.9561478549        5.9019954880       -9.3106422678
 H         5.9990975229        6.5096217995       -7.7769672335
 H         6.6095659931        5.6254926980       -9.0758213975
 H         5.9999597010        1.5560996412       -4.5796173922
 H         6.7022249275        3.0815850339       -5.1141230116
 H         6.8774613348        1.6223674071       -9.3253939054
 H         6.7369544736        3.4103486228       -9.8099495730
 H         5.3077071140        2.3758200224       -9.6748801576
 H         7.9798998572        4.5948735274       -7.2677839178
 H         7.9996664383        2.8743817809       -6.4731261339
 H         8.2705771315        3.1868656514       -8.2747148825
 H         4.0206792093        3.9640222109       -4.6377665064
 H         3.7162284805        2.2608144232       -4.3669561334
 H         5.6294207729        2.9524712987        0.5291546769
 H         4.6396209722        1.4394820880        1.1621768685
 H         5.6893445277        4.8875436589       -1.0760695563
 H         4.4333760483        4.3951340015        0.2447475867
 H         3.9911135134        5.6533811058       -1.0412025164
 H         2.4858868489        3.8634537517       -3.1061073672
 H         2.1280051809        2.6822441721       -2.0325781232
 H         1.9449324602        4.5178552872       -1.4806542050
 H         7.0595069625        1.5324285282       -0.6238364787
 H         5.8970783180        0.2717785847       -0.5579261284
 H         8.4171137357       -3.0207605784        1.4677162893
 H         6.7926714298       -2.1742573975        1.3756200128
 H         8.9748216364        1.5685332928       -0.2697588810
 H        10.3781290648        0.7146575391        0.4005062345
 H         9.5229477902        1.9070370012        1.4136125783
 H         9.9239464718       -0.7068234620        2.6332039364
 H         8.8352025226        0.5224046417        3.1489326977
 H         8.3422228872       -1.1894195428        3.0986236391
 H         7.8510368950       -3.4025778092       -1.1579831124
 H         7.0955769589       -4.5219964813        0.2440505623
 H         2.5441710987       -4.8770064157       -1.9783916207
 H         3.0065479243       -4.5889606184       -0.3471678565
 H         5.7706477454       -2.3773937584       -4.1238636942
 H         6.6155122654       -1.6154351550       -2.6867268552
 H         4.8875231786       -1.2901032984       -3.0709421601
 H         4.9858327226       -5.2806282784       -2.1805060236
 H         5.5135971306       -4.7876647586       -3.8307377440
 H         6.7055978898       -4.8042143950       -2.4330787940
 H         0.4400418519       -4.3469512824       -1.2605369433
 H         0.9587422390       -2.6884232465       -1.6957497452
 H        -3.6146883506       -2.3450936036       -0.4126991821
 H        -3.0428636633       -3.9976056437       -0.5705654763
 H        -1.1982812155       -4.9682100185        0.0204519062
 H        -1.7760040440       -5.2996957800        1.6115364397
 H         0.0329250405       -5.5209239508        1.1765412857
 H        -0.8117024993       -2.1341561617        2.9116977962
 H        -0.8525855442       -3.8976501064        3.2283789699
 H         0.6966952446       -3.1625319623        2.8993305756
 H        -3.3650810146       -3.9409339114        2.1093813887
 H        -4.3597127899       -2.5577824335        1.9063681928
 H        -5.9843275864       -2.4566726258        2.9029833529
 H        -6.8061287374       -2.3440811769        1.4982273415
 H        -7.2499022868       -6.8887966960        2.3844355851
 H        -5.6940786221       -6.9567756566        1.3462693626
 H        -7.2980256747       -6.2511761176        0.6698630600
 H        -4.5770285371       -6.2756595499        3.4084200569
 H        -5.0691695313       -4.7621008406        4.2368840680
 H        -6.1071676841       -6.1466064848        4.1060634055
 H        -8.6522731172       -2.5209414010        3.7651549438
 H        -8.7446407925       -1.4727050933        2.5064199602
 H        -8.1521092500        1.8925552922        3.4387929332
 H        -9.0466582394        0.8188600500        2.6894962056
 H        -9.0189475816       -2.4716928800        5.6645566211
 H       -10.4314106076       -1.5303824390        5.7601861693
 H        -9.1627091513       -1.3621173695        6.9765319009
 H        -7.3872049994        1.3283562888        5.6452024417
 H        -8.5940248447        1.0779567460        7.0706799749
 H        -7.0577947208       -0.0663600430        6.8430083650
 H       -11.1560545314        2.0819308874        3.1278234624
 H       -10.2284491643        3.3353871997        3.8177315837
 H        -9.6769380930        7.8834008102        0.3530009652
 H       -11.3863147591        7.3144659866        0.3996994842
 H       -10.5088145161        8.1494680356        1.6892166122
 H       -10.9890291208        5.8164990383       -0.9063362786
 H       -11.4042418371        4.1421417423       -0.9393719161
 H        -9.6324940062        4.4887057383       -0.6520002786
 H       -12.9893814265        3.9545948042        0.8048024293
 H       -12.5686581340        4.4379261750        2.6416558082
 H       -12.8134963647        5.6868917540        1.4124910775
 Na        3.1219439918       -0.8280771598        0.1567123425
