155

 C         6.0389837982        5.7024553720       -8.8396232371
 C         5.7035027520        4.6327675790       -7.7219435873
 C         6.3469208670        3.2734157679       -7.9201539002
 C         5.6487404538        2.3954138050       -6.8193484926
 C         6.0988776642        2.5771678999       -5.3947781805
 C         6.0604490716        2.7280115542       -9.2418024428
 C         7.8616682295        3.5372645002       -7.6179692749
 O         5.1436308979        4.9803441920       -6.7648732245
 O         4.6548065947        1.8060636791       -7.1105831435
 C         4.9362937739        2.8622598622       -4.5361536297
 C         5.1568470064        2.9353557608       -2.9543636308
 C         3.9524211743        3.3394735565       -2.0517145520
 C         4.0437861429        1.9578422534       -1.0544176012
 C         4.9978569208        1.7558538923        0.2218014475
 O         6.2878155340        3.0388024201       -2.5324976164
 O         3.4146634542        0.9903608072       -1.4005079227
 C         4.3811180263        4.5214826809       -1.1652705435
 C         2.5630872036        3.2723924873       -2.7088360078
 C         6.4148337257        1.2423082230       -0.1874198159
 C         7.1489703299        0.6250865402        0.9362117697
 C         8.4939211867       -0.2540799960        0.6284369227
 C         8.1273144281       -1.4957592769       -0.1485164327
 C         7.6488225743       -2.7949320931        0.6084719710
 C         9.4775053935        0.6065568226       -0.3136414763
 C         9.3610444370       -0.5064833101        1.9618595044
 O         6.8628558779        0.8056282229        2.1178215485
 O         7.9221790051       -1.3711652679       -1.3793797231
 C         6.7210290401       -3.6539833163       -0.2608813173
 C         5.5090870405       -3.0002846227       -0.7651697573
 C         4.9460470338       -3.5172658867       -2.0812717954
 C         3.4073075908       -3.2266180004       -1.9126800224
 C         2.2746182104       -4.0927433681       -1.1415302399
 O         5.1017043022       -1.9714545929       -0.1725348428
 O         3.0306608417       -2.1283989671       -2.3220784271
 C         5.4261017058       -2.4003922134       -3.1915556692
 C         5.3793337503       -4.8333702054       -2.5654658227
 C         0.9558821297       -3.2381565371       -1.0017972323
 C         0.7893976220       -2.9118606276        0.4988944767
 C        -0.4566804922       -3.5432552680        1.2548978991
 C        -1.6524239582       -2.5522106299        0.6816207542
 C        -3.0507506046       -3.2813814056        0.1442596937
 C        -0.4918234646       -5.1600806502        0.9528623646
 C        -0.2642238286       -3.3214874239        2.7739411760
 O         1.3087221414       -1.9804823978        1.0292772073
 O        -1.6369963420       -1.3478865652        0.6232638169
 C        -3.9944917520       -3.5629334534        1.3561558985
 C        -5.4293657241       -3.9638467543        0.8306278108
 C        -6.2117775603       -4.8632152416        1.9939155540
 C        -7.2775288357       -3.9208962968        2.8417257568
 C        -7.0035618358       -2.4860912214        3.2397884350
 O        -5.9149267023       -3.6369636225       -0.2352657995
 O        -8.2392930518       -4.5763040706        3.1697402832
 C        -7.0430136333       -5.8777036130        1.2826513978
 C        -5.4350157103       -5.5432419093        3.1104719605
 C        -8.0566903169       -1.8461873502        4.0990390553
 C        -7.5651398041       -0.6237937717        4.9207122021
 C        -8.5107026137        0.1841271321        5.9165261532
 C        -9.4349517525        1.0400624320        5.1333633424
 C        -9.1013618080        1.6374144802        3.6896228184
 C        -9.1294714847       -0.8400211254        6.9983752000
 C        -7.7649351024        1.2899722018        6.8590383145
 O        -6.4921381871       -0.1357612786        4.5750191821
 O       -10.1297203460        1.7542582272        5.8337483491
 C        -9.7898022665        2.9911404623        3.4418779185
 C       -10.1914080815        3.1431552795        2.0024449507
 C       -11.0036534376        4.3869253200        1.5179347603
 C        -9.9319373420        5.4876248128        1.8449491802
 C        -9.3296327898        6.4229593063        0.8426909941
 O       -10.0790005493        2.2582989400        1.1728757590
 O        -9.5741097351        5.6363215238        2.9936072857
 C       -11.3551423098        4.2909976456       -0.0110222250
 C       -12.2898730778        4.4087914752        2.3789967074
 H         6.7461730673        5.2215538547       -9.5208739288
 H         5.0967988776        6.2560956396       -9.2618348225
 H         6.6293594970        6.5779833524       -8.3465989060
 H         6.5427696457        1.6763694190       -4.9873549645
 H         6.9643891491        3.2034793352       -5.2132069336
 H         6.5146613742        1.7186529605       -9.3402673434
 H         6.6889490396        3.2323082412      -10.0412807795
 H         5.0371372913        2.8176742070       -9.4828663829
 H         7.9119649711        3.6040829595       -6.5630800514
 H         8.4553617460        2.7709082340       -8.1449956903
 H         8.3775438781        4.4667746492       -7.9839064611
 H         4.4904358432        3.8406916965       -4.7472065641
 H         4.1416505038        2.2002968521       -4.9133775955
 H         4.9581501899        2.7705443608        0.6714831570
 H         4.5789172767        1.1261331925        0.9089730713
 H         4.9814653094        4.2062727872       -0.3567848148
 H         3.6514654291        5.3404728073       -0.9417735038
 H         5.0145502328        5.1407373011       -1.6917801307
 H         2.6934072873        3.5278373523       -3.7268384944
 H         2.2755334366        2.3025974286       -2.5478775361
 H         1.7599790690        3.8641820308       -2.1964104347
 H         7.0418254247        2.0469647984       -0.6748749249
 H         6.1565033845        0.4007330593       -0.9255917023
 H         8.5495276434       -3.3760405784        0.6924888883
 H         7.1998595358       -2.5428649806        1.5456902893
 H         9.1422321486        0.7395294649       -1.3247630912
 H        10.3765633434        0.0867568464       -0.3637151793
 H         9.7045252982        1.6223418860        0.2030576307
 H        10.0250828168       -1.3448852041        1.9157585017
 H         9.9267554816        0.3770238885        2.3102233092
 H         8.7792986996       -0.6813917002        2.8292808814
 H         7.2180439937       -3.8585954287       -1.1622421494
 H         6.4380179081       -4.5643640495        0.1969859198
 H         2.0263366347       -5.0145175418       -1.8787392134
 H         2.6811546530       -4.5235891692       -0.2898110693
 H         4.7606315548       -2.4093796360       -4.0406754017
 H         6.4548924936       -2.8461721847       -3.4329808242
 H         5.6449714026       -1.4304709348       -2.7486879605
 H         4.9271610776       -5.7040167392       -2.1012113449
 H         5.2299171676       -4.9360891525       -3.6549195178
 H         6.5017352818       -4.9206237577       -2.3913891945
 H         0.0730514179       -3.8054898661       -1.4692861838
 H         1.1504429128       -2.2936813323       -1.5221699265
 H        -3.4133091259       -2.4391697910       -0.5182250222
 H        -2.8980813146       -4.0912430864       -0.5493315843
 H        -1.0865863769       -5.3852934425       -0.0272239757
 H        -1.0835432901       -5.7013640703        1.6408786117
 H         0.5867438116       -5.5195931230        1.0618218351
 H        -0.2017541496       -2.3070085695        3.1034811321
 H        -1.1525243603       -3.8910924822        3.1338386585
 H         0.6324604345       -3.8335968175        3.0776833208
 H        -3.6289857689       -4.2869507685        2.0817801385
 H        -4.1167932622       -2.6631558600        1.9978464598
 H        -5.9977505947       -2.5885984686        3.8778355119
 H        -6.9043546465       -1.9098861420        2.3195616332
 H        -7.5259329792       -5.4121205798        0.4202006920
 H        -7.9696567084       -6.1475843558        1.9249961688
 H        -6.4462876190       -6.8140229248        1.1965979080
 H        -5.8815970454       -6.5045495486        3.4436484684
 H        -4.4319411637       -5.7203664069        2.9799126030
 H        -5.4513515632       -4.8141256951        3.9486317256
 H        -8.6432419616       -2.5881575595        4.5889912092
 H        -8.7704376881       -1.5434567064        3.4129892430
 H        -8.0360696591        1.9342529504        3.7393099720
 H        -9.2109822891        1.0598488748        2.7624949035
 H        -8.4551557073       -0.9359186300        7.9628248543
 H        -9.2439597354       -1.7968437401        6.5650071811
 H       -10.0211228482       -0.6988357417        7.4840554284
 H        -7.3184366539        2.1212039086        6.2045114098
 H        -8.7427718126        1.7168557249        7.2930496925
 H        -6.9744412114        0.7172357404        7.4439667091
 H       -10.7410189104        2.9032319570        3.9163066966
 H        -9.4162288910        3.8765648974        3.8982037120
 H        -9.1131396249        5.8927426816       -0.1355480990
 H        -9.9098537304        7.2713622830        0.5323140287
 H        -8.4186567778        6.5403614626        1.4113917555
 H       -11.1821547018        5.3182791562       -0.4012238403
 H       -12.4335748318        3.9254259756       -0.1527334145
 H       -10.6975777755        3.6096815622       -0.5740245409
 H       -12.9580890878        3.5332818568        2.1784946604
 H       -11.9508903862        4.2890295462        3.4113996189
 H       -12.8923651936        5.3262156452        2.1090774907
 Na        2.8652438217       -0.7213993404       -0.3522250453
