155

 C        -1.9463194760       -8.5190956582        4.5904521845
 C        -0.9057710799       -7.5246458520        4.0995492217
 C        -0.0312984200       -6.7796629259        5.1780029274
 C         0.0638922459       -5.2658541019        4.8507411042
 C        -1.1020377786       -4.4764166261        4.1603425293
 C        -0.5664794357       -7.1268152306        6.6375869911
 C         1.3401598298       -7.4211400207        4.9582195462
 O        -0.7485753764       -7.4308255687        2.8959283489
 O         0.9835026924       -4.5705530749        5.1744743147
 C        -1.2471260467       -3.1024331649        4.8339575291
 C        -1.9168073001       -2.1044865832        3.8247766273
 C        -2.4795195526       -0.6674377312        4.4154460806
 C        -2.6964717321        0.3746681776        3.3554350698
 C        -1.6511044023        0.3942479173        2.2168078701
 O        -2.0467724657       -2.4395894810        2.6826524518
 O        -3.5887491469        1.2044812816        3.2202653023
 C        -3.7888676324       -1.0948910211        5.0979179715
 C        -1.2794056956       -0.0782344013        5.3120524628
 C        -1.7560616525        1.7659628607        1.5701705438
 C        -0.6801777807        2.0646503965        0.5355651382
 C        -0.8418532492        3.4271353490       -0.3327716044
 C         0.4670706757        4.2169695882        0.1157673418
 C         0.4911909209        5.4188326724        1.0100967754
 C        -0.8682999077        2.9336599485       -1.7855196665
 C        -2.2306757828        4.0686755365        0.0154270548
 O         0.2554454057        1.3142988180        0.4957546651
 O         1.5472537222        3.7170418265       -0.1194847058
 C         1.4680010916        5.5157902559        2.1665609261
 C         1.1437263769        4.4739884321        3.2832386422
 C         1.9991568926        4.4926870961        4.6400718214
 C         3.4256849060        3.9405533618        4.2217163211
 C         3.6893357882        2.4482132169        4.2855482831
 O         0.3071631529        3.6169112502        3.1283293054
 O         4.3119731795        4.7007455527        4.0448856494
 C         2.1538582842        5.8588413660        5.3113910060
 C         1.1790280502        3.5248510895        5.5866871926
 C         4.7951897219        2.0043261168        3.3041253521
 C         4.5805573809        1.6955082708        1.8629723999
 C         5.7861843990        1.2797886283        1.0015460182
 C         5.2442730385        0.5293795590       -0.3869872880
 C         6.1266312628        0.5940929125       -1.6195520190
 C         6.4451146504        2.7377392258        0.6315277592
 C         6.6690343261        0.2060024238        1.6146001435
 O         3.5115498942        1.7025340524        1.3382382394
 O         4.1450545394       -0.0192445907       -0.4208887102
 C         5.4164031496       -0.0394979965       -2.7914629271
 C         4.1992254735        0.8007511691       -3.1825214377
 C         3.1949419901        0.2063775716       -4.3091952719
 C         1.9772022381       -0.5329279684       -3.6792827642
 C         1.1154961059       -1.5385902450       -4.4703544698
 O         4.0272318399        1.7928388092       -2.5032381864
 O         1.5744638631       -0.1412263707       -2.5910100256
 C         2.4851124107        1.5064073658       -4.9612090371
 C         3.8997729357       -0.6756008615       -5.3133577649
 C         0.0356478209       -2.2244304191       -3.5729621486
 C        -1.3233878643       -2.0350206708       -4.2305559271
 C        -2.6705573451       -2.6394837783       -3.6113274410
 C        -3.6875706453       -1.3182929489       -3.7304660217
 C        -4.2641600141       -0.9818671813       -5.1438827836
 C        -3.1756339830       -3.9004482300       -4.3263025681
 C        -2.4864807542       -2.9034793296       -2.0927953722
 O        -1.3935912458       -1.4756262333       -5.3017061986
 O        -3.8943173253       -0.7591864464       -2.7003974408
 C        -5.6365562757       -0.3996092284       -4.9759108723
 C        -6.2156767827        0.2187567236       -6.3599098657
 C        -7.7491835652        0.5746131726       -6.3701614427
 C        -8.3137191786        0.2011584205       -7.7992699224
 C        -9.8302100256        0.2751066682       -7.8980498810
 O        -5.5096219592        0.3033836204       -7.3190281812
 O        -7.6970854367       -0.1201005406       -8.7881365045
 C        -8.4947099757       -0.0318092141       -5.1731509406
 C        -7.8424376164        2.2450746385       -6.4210617402
 H        -2.0461695544       -8.6710682047        5.6565328959
 H        -2.8801464576       -8.2382717078        4.2491271904
 H        -1.7271630836       -9.5566259374        4.2910889113
 H        -0.8070470103       -4.3989703152        3.1150340527
 H        -2.0876947426       -4.9603861357        4.1181053537
 H        -1.5924348506       -6.9202995351        6.7633864987
 H         0.0911328247       -6.7572826328        7.3827707514
 H        -0.6717971729       -8.1315151460        6.8972766525
 H         1.6096526304       -7.6501007698        3.9363779546
 H         2.1407784877       -6.7192953811        5.3709158226
 H         1.4067160685       -8.4044519599        5.5190176952
 H        -1.6547251891       -3.1945803840        5.8139023193
 H        -0.2093298012       -2.6672874815        5.1208499231
 H        -0.6284282505        0.1060126354        2.6766124004
 H        -1.9237245170       -0.4873291257        1.5495389275
 H        -4.3745292341       -0.1908211202        5.0512811090
 H        -3.7004937709       -1.5395541727        6.1662747862
 H        -4.2325186620       -1.7794654033        4.4302599021
 H        -1.0688973190       -0.8847055062        5.9795070171
 H        -0.4388311786        0.1665727628        4.6020698485
 H        -1.5149642836        0.9250771825        5.7015120645
 H        -1.7008974378        2.4930449421        2.3539435370
 H        -2.7395402364        1.9525229267        1.1753830100
 H         0.7242250842        6.2476269922        0.3622327871
 H        -0.5476074163        5.5462924158        1.2443796373
 H         0.0764541108        2.9402537535       -2.2381762812
 H        -1.4097072875        3.6062840212       -2.5190564689
 H        -1.3153536306        1.9401565614       -1.8027898628
 H        -3.0108504134        3.3170587018       -0.2288397364
 H        -2.1872439804        4.2166554151        1.1272843703
 H        -2.4433729101        4.9895657402       -0.5020801709
 H         2.3746485653        5.1984974986        1.7859558872
 H         1.5698170820        6.5414526753        2.6716660751
 H         4.0852626376        2.1433418572        5.2464108827
 H         2.7041871179        1.9142549629        4.0575590363
 H         2.6231184108        6.6140393584        4.6199137132
 H         2.6584440898        5.8712984896        6.2657481506
 H         1.1542420161        6.2263575335        5.3996854804
 H         0.2362901280        4.0060400703        5.8471911517
 H         1.0059577848        2.6375340341        5.0288835656
 H         1.7637305565        3.2115180312        6.4400879507
 H         5.2959026967        1.1179143474        3.6916830962
 H         5.5076350028        2.8511335501        3.2753209758
 H         6.3555844973        1.6653167561       -1.7978326215
 H         7.0526403420        0.1181837284       -1.5090801063
 H         5.7418965969        3.4794830253        0.1722987790
 H         7.4030150438        2.5701744741        0.0441601774
 H         6.9039483250        3.1526912021        1.5223559644
 H         7.3983035213       -0.1352182886        0.9663078182
 H         7.2668179456        0.5360433718        2.5075020314
 H         6.0941521164       -0.6166048460        2.0194355305
 H         6.0416333466       -0.2570271644       -3.6309536640
 H         5.1483517079       -1.0946236093       -2.4449949492
 H         0.6449448032       -1.1978527414       -5.3922178043
 H         1.7829485111       -2.2844372835       -4.9069398095
 H         2.4934392441        2.2773373762       -4.1659158354
 H         1.4634395765        1.3875689940       -5.2653573796
 H         2.9709779261        1.8379112430       -5.8168576398
 H         3.3287549399       -0.8851694986       -6.2883422778
 H         4.8022577430       -0.1890500559       -5.7044254715
 H         4.1484310668       -1.5672167814       -4.8562554875
 H         0.0596884420       -1.6940806756       -2.5956205689
 H         0.1578371969       -3.2688450684       -3.3875445264
 H        -3.6418025052       -0.2497468083       -5.7248003336
 H        -4.3443526661       -1.8746385714       -5.7640506206
 H        -3.4689007710       -3.8176778050       -5.3209641159
 H        -3.9193823184       -4.4359525836       -3.6685688128
 H        -2.3917132170       -4.7091861744       -4.3789079274
 H        -1.9169198343       -2.1139131234       -1.6363999500
 H        -3.3988254749       -2.7780666813       -1.6130740815
 H        -2.1087792513       -3.9645472589       -1.8313211021
 H        -6.2882531215       -1.1657818122       -4.4698719815
 H        -5.4055089988        0.4987685143       -4.3981203169
 H       -10.4743538760        0.7723780686       -7.1624873956
 H       -10.1589484695        0.6865593291       -8.8609830570
 H       -10.2834759640       -0.6919363395       -8.0327563763
 H        -7.9563881689       -0.0271186815       -4.2600451394
 H        -8.5987536586       -1.0843781058       -5.2773587148
 H        -9.5256397945        0.4359474538       -5.1772517889
 H        -8.8514630230        2.6699362658       -6.3147175423
 H        -7.3366461774        2.5799148585       -5.6076686907
 H        -7.4541951266        2.5710496771       -7.3679712004
 Na        2.1890944441        1.5496148757       -0.7098823323
