155

 C         6.2465244811        5.9434853530       -9.6342886431
 C         7.3224452370        5.2568350661       -8.6886698464
 C         6.8000813170        3.9343753044       -7.9941532475
 C         5.4987310911        4.3757732927       -7.1015367673
 C         5.8688515614        4.3030126162       -5.5632249778
 C         6.2977736034        2.7444335782       -8.7435456803
 C         8.1103794676        3.4105024299       -7.3709319282
 O         8.2985641895        5.8646185240       -8.3037006834
 O         4.3327822596        4.3197500778       -7.4317800890
 C         4.6613865517        4.0147871999       -4.7183156139
 C         5.0035049860        3.3573923023       -3.3632862640
 C         3.7818302895        2.8616543981       -2.3248218623
 C         4.1254113952        1.3811479526       -1.8044139575
 C         5.3899541380        1.0384979854       -0.9630123248
 O         6.1552322496        3.1650060308       -3.0188516760
 O         3.4234420994        0.4455947588       -2.1881897431
 C         3.8244842495        3.8050758963       -1.1686237553
 C         2.3837086846        2.9475785768       -3.1117254569
 C         6.4520576402        0.2432704730       -1.9066287048
 C         7.5121463681       -0.3562466327       -1.0337818060
 C         8.3398622246       -1.5949693909       -1.9547785047
 C         7.3798398265       -2.7817252655       -1.7453173129
 C         7.2099331334       -3.4839603072       -0.4306374094
 C         8.5739796284       -1.2041678106       -3.4222961167
 C         9.6824864461       -1.9803496942       -1.3107207688
 O         7.7395068439       -0.1690716041        0.1197994237
 O         6.5067276636       -2.8915800582       -2.5946872375
 C         6.3065539935       -4.7154105252       -0.7100289722
 C         4.8473084760       -4.1219141481       -0.9587313227
 C         3.8773403373       -4.9487444096       -1.7935763213
 C         2.5427163523       -3.9223035090       -2.2955928577
 C         1.2289614796       -4.3981338389       -1.7410880519
 O         4.6115084297       -3.1291888118       -0.3644113403
 O         2.7024044519       -2.8861247704       -2.9173769853
 C         4.5605404768       -5.2376889626       -3.1398482015
 C         3.4735779117       -6.3813016612       -1.1193903306
 C         0.0251729636       -3.3541372576       -1.7435589782
 C         0.0356900589       -2.4363545754       -0.4983096150
 C        -1.2176688343       -2.2462992931        0.2060355491
 C        -2.5938068444       -2.0517214594       -0.7200438673
 C        -3.7591297416       -1.2944417872       -0.0513353937
 C        -1.5236182956       -3.6126600300        0.9347873005
 C        -1.1525600180       -1.1113276036        1.1640176326
 O         1.0659915689       -1.8612062128       -0.1728166910
 O        -2.7289483323       -2.7857240571       -1.6523751678
 C        -4.3107542185       -2.2199332949        0.9875083816
 C        -5.6339029436       -1.8511382231        1.5721814789
 C        -6.1188075698       -2.9933028010        2.6392467465
 C        -7.0866790270       -2.0670839395        3.5649319952
 C        -6.5698587023       -1.4040053124        4.8226318183
 O        -6.2708801418       -0.8246414108        1.4763631673
 O        -8.2429571105       -2.0040570945        3.1701075547
 C        -6.9219224768       -4.0721087769        1.9103882411
 C        -4.9811315708       -3.6227857994        3.3862259048
 C        -7.4486654476       -0.2186249045        5.3012259273
 C        -6.9135316949        0.4989139331        6.5706213522
 C        -7.7919635403        0.7345452784        7.8790108135
 C        -8.9445456384        1.7610545573        7.3949812758
 C        -8.2796825890        3.1671166857        6.9781948675
 C        -8.3129562891       -0.5320641143        8.7003367675
 C        -6.8172888177        1.5788903758        8.8221281686
 O        -5.6996373918        0.6449157125        6.6084273568
 O       -10.1025480257        1.4906778165        7.3669241014
 C        -9.2169333206        3.7569843827        5.8911315666
 C        -9.1166869763        3.0123158758        4.5669682193
 C       -10.3287842680        2.8555314640        3.5451038470
 C        -9.5858412620        2.6500495066        2.1367480650
 C        -9.6194510967        1.3004073269        1.5390737212
 O        -8.0246998043        2.6573118040        4.0959615294
 O        -9.1870344888        3.6793015128        1.6064798232
 C       -11.1639388527        1.5673765479        3.8953392518
 C       -11.2788984208        4.1352934554        3.3629581942
 H         6.2231208780        5.5571761285      -10.6264025086
 H         5.2666489186        5.7005028334       -9.3529172902
 H         6.2854113726        7.0187746228       -9.5435501772
 H         6.6647554363        3.5881861595       -5.4794270949
 H         6.4087273756        5.2091079797       -5.2200322583
 H         6.2953358144        1.8825993305       -8.1182250500
 H         6.8796655726        2.4064535049       -9.6253485218
 H         5.3092884498        2.9731334919       -8.9805306768
 H         8.3846222351        4.1393267313       -6.6472022781
 H         8.1671896059        2.3990437860       -6.9600780866
 H         8.9308800372        3.4651093079       -8.1579946300
 H         4.1940448054        4.9097540085       -4.3748703704
 H         3.8509697006        3.4311310211       -5.1974597681
 H         5.9745768781        2.0063302989       -0.6833835622
 H         5.0708744635        0.4571358110       -0.0756821293
 H         4.8148168892        4.3033048600       -1.0280214153
 H         3.3695884619        3.5547517273       -0.1952179183
 H         3.4471675175        4.8300160687       -1.4161710281
 H         2.3548079290        2.3022373495       -3.9669765840
 H         1.6549714373        2.5172327949       -2.5297613864
 H         2.2238461830        3.9597932440       -3.5614538702
 H         6.9832587768        1.0704703016       -2.4507769611
 H         6.0357833186       -0.4616137088       -2.5958598448
 H         8.2078006626       -3.7989548830       -0.0963329057
 H         6.7474460584       -2.7873703555        0.2763977617
 H         7.6571996229       -1.2603706406       -4.0504399812
 H         9.3069526644       -1.8220996913       -3.9334868885
 H         8.9784171528       -0.1612114905       -3.4679090525
 H         9.8686903714       -2.8879124660       -1.8688715709
 H        10.3964330294       -1.1118782813       -1.4293144611
 H         9.5994625814       -2.2750029776       -0.2929065220
 H         6.7734505189       -5.3192839664       -1.3965353338
 H         6.1150243002       -5.2253152995        0.1354049428
 H         0.8413186074       -5.0400352478       -2.5628815948
 H         1.3486480636       -5.0873767854       -0.9455534352
 H         3.9120238727       -5.7582107854       -3.7832482278
 H         5.4179328311       -5.8936579571       -2.8513442236
 H         4.7846068041       -4.2865986428       -3.5629261411
 H         2.7231958035       -6.2649571119       -0.4298594386
 H         3.1368479810       -7.1242680337       -1.8975579206
 H         4.3506616112       -6.8736071316       -0.6073569993
 H        -0.8597340502       -3.8974649126       -1.8815260691
 H         0.2629585194       -2.7026660555       -2.6300368238
 H        -3.5682345804       -0.3540048712        0.3871650272
 H        -4.5361501497       -1.0462444284       -0.6666686895
 H        -1.8515470918       -4.3379393846        0.2508299772
 H        -2.2396010568       -3.7768825494        1.7448894999
 H        -0.5973243498       -4.1414446709        1.2887517117
 H        -2.1110494640       -0.8249371149        1.5335137647
 H        -0.7479354285       -1.4585906643        2.0863065173
 H        -0.6757409902       -0.2575037168        0.7285971870
 H        -4.4730219449       -3.2616313881        0.6855482350
 H        -3.5594727052       -2.3004159672        1.8072970667
 H        -6.6719438547       -2.1600983827        5.5516324990
 H        -5.5430784265       -0.9985928705        4.9545918434
 H        -7.9669788430       -3.9384939391        2.1168520990
 H        -6.7130456940       -5.0407354855        2.3455074519
 H        -6.9383470065       -4.1239884819        0.8689539546
 H        -4.2514684674       -2.8426863311        3.8083933085
 H        -5.3788889893       -4.1355659027        4.1912111368
 H        -4.4083392477       -4.4580142555        2.9281896565
 H        -8.6078797070       -0.3667364968        5.4977873208
 H        -7.3074953076        0.5563838180        4.5043671917
 H        -8.2280331767        3.7686017371        7.8901192996
 H        -7.2306550644        3.0411127869        6.6427638209
 H        -7.5846963170       -0.8424077293        9.3802346545
 H        -8.5241565697       -1.3606918740        7.9590638289
 H        -9.1323942629       -0.1915656903        9.3265310991
 H        -6.1146492170        2.3267528086        8.2406615985
 H        -7.5062584135        1.9999485986        9.7212033991
 H        -6.0514012570        0.9917795638        9.4560043182
 H       -10.2106395600        3.7686448338        6.1759578069
 H        -8.9313422220        4.7263008766        5.6030087835
 H        -8.6744778043        0.9667138410        1.1082177642
 H       -10.1201446527        0.4501589402        2.0125078907
 H       -10.0258484493        1.4023979965        0.5599229495
 H       -11.9926607046        1.6082081294        3.2487072152
 H       -11.3914673186        1.2891745911        4.8824213583
 H       -10.5946527138        0.7252656785        3.5167252771
 H       -11.9827967532        4.1991543654        4.1731379141
 H       -10.7034287329        5.0035043368        3.3363679863
 H       -11.8922459366        4.0551098509        2.4548267765
 Na        3.1561569067       -1.5137573989       -1.1801526477
