155

 C         6.0625815426        5.8960826282       -9.6642519576
 C         7.0809480180        5.2623807280       -8.7905391507
 C         6.8688156779        3.8321038086       -7.9467485152
 C         5.7742660070        4.1445452681       -6.9250647994
 C         5.9567005185        4.6264499188       -5.3381367596
 C         6.3802905523        3.0367746181       -9.2262002681
 C         8.1789985195        3.2631220991       -7.2763870517
 O         8.1435139155        5.7916057686       -8.6413160063
 O         4.6869860211        4.3702863213       -7.3979468901
 C         4.8075692382        4.4822794493       -4.3122510175
 C         5.0829966070        3.3719386964       -3.1920415576
 C         3.7749290825        2.8536931865       -2.3205255911
 C         4.1958514854        1.4155671740       -1.9097549430
 C         5.5269697720        1.1251493012       -1.2006003947
 O         6.2323936791        3.0599868886       -3.0595460908
 O         3.5009567094        0.5176058576       -2.3371146394
 C         3.7256137768        3.8338732491       -1.0710411589
 C         2.4072488914        2.6776318024       -3.1126139887
 C         6.4205975283        0.2745541741       -2.0570883468
 C         7.4579912810       -0.5367527717       -1.2228943007
 C         8.1957763539       -1.6485894923       -2.0520412432
 C         7.1950753114       -2.8515482498       -1.8722452302
 C         7.2206038076       -3.8358141586       -0.6268815914
 C         8.3815745960       -1.3059354273       -3.5420768569
 C         9.5850336620       -1.6866230268       -1.2893488188
 O         7.7195069914       -0.2610505169       -0.0599991986
 O         6.2478930411       -2.9864469138       -2.6164079621
 C         6.0227182752       -4.7454280475       -0.5154831905
 C         4.7838973021       -4.1925568166       -1.0945276481
 C         3.8587969315       -5.1765072269       -2.0077808673
 C         2.6169187408       -4.2623479106       -2.2209296461
 C         1.0329774009       -4.5621978539       -1.9517595511
 O         4.3523569240       -3.0837919800       -0.6400104488
 O         2.8426852651       -3.2143194707       -2.7574588790
 C         4.3996077093       -5.5589697001       -3.3714666007
 C         3.4495281671       -6.3761030183       -1.0859809201
 C         0.1579852500       -3.3193489555       -1.8648462887
 C         0.0103302998       -2.3721520046       -0.5739862990
 C        -1.2311641320       -2.3174168003        0.2875248278
 C        -2.4676268795       -2.1023970154       -0.7395449466
 C        -3.7929224825       -1.2828245008       -0.3057199042
 C        -1.2437743245       -3.5780202682        1.0823347218
 C        -0.9698260343       -1.0845826485        1.3296795598
 O         0.9432858906       -1.6079556947       -0.4258855350
 O        -2.5526435563       -2.8658104527       -1.6665916237
 C        -4.2875454272       -2.1899785572        0.9017571614
 C        -5.6572957041       -1.7442093235        1.5886560469
 C        -6.0945202277       -2.7294219572        2.7323845187
 C        -7.2148133588       -2.0411714513        3.6502214201
 C        -6.5270353923       -1.1498655163        4.6737040843
 O        -6.2677680549       -0.8158725378        1.1604639607
 O        -8.3989511554       -2.0623425964        3.5111131774
 C        -6.9174198739       -3.8423766460        1.8271805614
 C        -4.9498750975       -3.2856044802        3.5805483376
 C        -7.5217770638       -0.1561333148        5.4397485370
 C        -6.8929591767        0.4971102185        6.7144102632
 C        -7.7769259210        0.9158252572        7.9725333340
 C        -8.8304830877        1.9403074239        7.4090801952
 C        -8.3747194196        3.4051838088        7.0023473136
 C        -8.6005400767       -0.2155866055        8.5825007737
 C        -6.7871826356        1.5882386140        8.9820300124
 O        -5.7177290035        0.4477967075        6.8293867092
 O        -9.9884813895        1.5320621220        7.4063109876
 C        -9.3075503315        3.9158008511        5.9416893946
 C        -8.9474429493        3.0940994496        4.5999464455
 C       -10.2180460837        2.6744347134        3.6977241579
 C        -9.6045393912        2.4682930035        2.2345514426
 C        -9.5026004423        0.9791292889        1.6056312798
 O        -7.7866577890        2.9242598416        4.4279666343
 O        -9.2299196177        3.3691691231        1.5189757087
 C       -10.8812471006        1.3996510184        4.5402732866
 C       -11.2152166824        3.9477921431        3.7454921872
 H         6.6304500664        6.2420519675      -10.5692228993
 H         5.2153850958        5.2614714958      -10.1356233703
 H         5.6466452565        6.7984073201       -9.1530992028
 H         6.9308335917        4.3440850915       -4.9397284062
 H         6.1740051254        5.6588755062       -5.5145317089
 H         5.9678652273        2.0520754893       -9.0127351813
 H         7.2302273850        2.7125240625       -9.7628794272
 H         5.6442022722        3.6837963218       -9.7675233990
 H         8.2551462497        3.8331673629       -6.3119580407
 H         8.0006114778        2.1831989003       -7.0619874717
 H         9.0592620524        3.1810370277       -7.8365690609
 H         4.6203804422        5.4784304792       -3.7477850477
 H         3.8272353280        4.2585052140       -4.6923090325
 H         6.1297678109        1.9852585176       -0.9877477126
 H         5.3755391467        0.5401656661       -0.2952449045
 H         4.1145311356        3.3257627880       -0.2436105002
 H         2.6607200241        3.9061529510       -0.8259893942
 H         4.0375641693        4.8074537557       -0.9315762232
 H         2.5228765130        2.2176792955       -4.1132904724
 H         1.8155349479        2.0336046763       -2.4177582198
 H         1.9671215615        3.5841419593       -3.3373916153
 H         6.8938191472        0.9164523829       -2.7938052619
 H         5.7908951924       -0.5299666118       -2.5786818239
 H         8.1600951662       -4.3994389125       -0.6121752172
 H         7.2203316133       -3.1948606042        0.2539163903
 H         7.5005345740       -1.4596483119       -4.0484492627
 H         9.0810975371       -1.9718621788       -4.0230375269
 H         8.8030524386       -0.3207588451       -3.7287072338
 H        10.3259650816       -2.3074200383       -1.8059089208
 H         9.6767124085       -0.6601670230       -1.0975903175
 H         9.4541252544       -2.1043700177       -0.2579429533
 H         6.2111200848       -5.7200456856       -1.1352362000
 H         5.8015423398       -5.1714475731        0.5939078751
 H         0.7544830367       -5.1081709590       -2.9119623076
 H         0.8661721074       -5.4686642721       -1.1624439182
 H         3.6311929526       -6.2462919113       -3.7784650156
 H         5.3514147342       -5.9624581798       -3.3087989991
 H         4.2191928537       -4.6774329229       -3.9843111258
 H         3.3070826161       -6.1032028928        0.0187919257
 H         2.4997078737       -6.7207550283       -1.3761759763
 H         4.0896358984       -7.2162495161       -1.2506078471
 H        -0.8831235101       -3.5368599902       -2.3531746208
 H         0.6665294205       -2.5737145183       -2.4739782046
 H        -3.5424050963       -0.2224627747        0.0081838774
 H        -4.6461245153       -1.3073558057       -1.1314583714
 H        -2.0563828132       -4.4013082236        0.8667270136
 H        -1.6112014027       -3.4627605508        2.0967923808
 H        -0.3050720585       -4.1219928864        1.2117951863
 H        -0.9049401170       -1.2934537155        2.3867169254
 H        -0.0190534700       -0.5722220022        1.0961681660
 H        -1.8338617221       -0.4226186293        1.1880848212
 H        -4.3839497562       -3.2519522078        0.5994008080
 H        -3.4562641257       -2.1747683786        1.6005751994
 H        -5.7701523614       -1.5278067508        5.4483199392
 H        -5.8861568870       -0.5419671053        4.0425656000
 H        -7.8873774955       -3.5585778456        1.3938594434
 H        -7.2185890685       -4.6965992966        2.4971916591
 H        -6.3588257771       -4.0777366988        0.8397355060
 H        -4.1873125646       -2.6072926307        3.8330337003
 H        -5.3120898538       -3.8476872906        4.5099399051
 H        -4.5169996237       -4.1665090493        3.1340481127
 H        -8.2703163403       -0.7569172304        5.8180655088
 H        -7.9230724153        0.6411611243        4.8446689115
 H        -8.5464819199        4.0618712513        7.8544895931
 H        -7.3308909895        3.2973434314        6.7967833526
 H        -7.9381546706       -1.0509799187        8.9548234873
 H        -9.3500031381       -0.6607619118        7.8759457937
 H        -8.8926472178        0.3038587378        9.4406801075
 H        -6.2349726800        2.3731807216        8.6154027964
 H        -7.2390108618        1.7965247138        9.8872740421
 H        -6.0817408988        0.8671837361        9.2528156283
 H       -10.3336471851        3.5671068573        6.3536264661
 H        -9.3410182000        5.0359422604        5.7711941341
 H        -8.8617620146        0.7590662236        0.7169841720
 H        -9.3125234404        0.3039021574        2.4219649551
 H       -10.4053975552        0.4945959647        1.0568726463
 H       -10.9674833086        0.4053265384        4.0867435035
 H       -11.9280155463        1.7937937372        4.7987019552
 H       -10.4617730650        1.3611993500        5.4920340162
 H       -11.3060557941        4.4255811063        4.7754505587
 H       -10.6849595709        4.7457691466        3.1530190898
 H       -12.1840360682        3.6420918727        3.3377434464
 Na        3.0569243435       -1.3838161382       -1.3551807240
