155

 C         5.6520569093        6.0548864290       -8.9113229396
 C         6.9949423236        5.2913244085       -8.6476928611
 C         6.8846803561        3.9292686034       -7.8851220278
 C         5.8174210002        4.3009573181       -6.6354974759
 C         6.3883233034        5.3094055030       -5.4464182214
 C         6.3431424755        2.9200379058       -8.9763716612
 C         8.2256358065        3.5025152293       -7.2145389286
 O         7.9656210698        5.7233672186       -9.1864800044
 O         4.6313083150        3.9408565513       -6.5387897609
 C         5.4244884293        5.0389232152       -4.1260486372
 C         5.3514839382        3.5859289031       -3.6236483643
 C         4.0317100836        3.0461652697       -2.7784228740
 C         4.2237236868        1.5409912135       -2.4092666271
 C         5.2365327708        0.9205879606       -1.5180502358
 O         6.3642270181        2.8996290621       -3.5656618253
 O         3.3408356513        0.7699601582       -2.7624190432
 C         4.0011923071        3.9053251551       -1.4731298441
 C         2.7823168303        3.3759793636       -3.6352189062
 C         6.0240312964       -0.0560962739       -2.5646783851
 C         7.0881244987       -0.7779862181       -1.7009780834
 C         8.0744162953       -1.9108592994       -2.4344886609
 C         7.1084884865       -3.1382331532       -2.1092271624
 C         7.2532138311       -4.0744975848       -0.8133240161
 C         8.2761515953       -1.8528137418       -3.9349161605
 C         9.3437602795       -2.1847219639       -1.5966271950
 O         7.0623542635       -0.6996304642       -0.4798278940
 O         6.1954057510       -3.4157300414       -2.8832799166
 C         6.0374095971       -5.0125155144       -0.5842190458
 C         4.7427375209       -4.4312415819       -1.1306211809
 C         3.7407118107       -5.4485790257       -2.0463040008
 C         2.5747392141       -4.3927241275       -2.4868847608
 C         1.2307546325       -4.3981843726       -1.6579545396
 O         4.3078959040       -3.3862010263       -0.7862273826
 O         2.8564131415       -3.5944601972       -3.4043949548
 C         4.3710230173       -6.0364343644       -3.2294081283
 C         3.3972476199       -6.5729711810       -1.0957682779
 C         0.2438940947       -3.3695983856       -2.2775503573
 C         0.0727441084       -2.1765979733       -1.2651774589
 C        -1.1133924040       -2.2099056396       -0.0515346650
 C        -2.6585851722       -2.1575324152       -0.7179014875
 C        -3.7172907981       -1.4412613226        0.1888312521
 C        -1.1573088794       -3.5913755451        0.5565872863
 C        -0.8794359510       -1.1532961143        1.0875903248
 O         0.9217578720       -1.2839380324       -1.3048399119
 O        -2.7859834079       -2.8161440648       -1.7399305406
 C        -4.2878035110       -2.0687914782        1.5261775927
 C        -5.5889187849       -1.3975834948        1.9453887977
 C        -6.3622520422       -2.2784095374        3.0925480764
 C        -7.3244650500       -1.4749058074        4.0494622766
 C        -6.6295882648       -0.4561332714        4.9563475295
 O        -6.0982355930       -0.5254711857        1.2812105313
 O        -8.5168425215       -1.6393372757        4.1785704788
 C        -7.1876892975       -3.2428268609        2.2144331869
 C        -5.4663436559       -3.2726891829        3.9680042257
 C        -7.4710139407       -0.3086409256        6.2055547836
 C        -6.7494063709        0.4261559593        7.3544653389
 C        -7.6684693355        1.0979752475        8.5108272881
 C        -8.5763720290        2.0236575789        7.7518778812
 C        -7.9685236401        3.2152497333        6.9995919828
 C        -8.3833601590        0.0133262189        9.3686165414
 C        -6.7776463576        1.9828082353        9.4490371686
 O        -5.5906196646        0.7493064631        7.2250006760
 O        -9.7852413909        1.9712647178        7.9859539001
 C        -8.9294795952        3.6839838929        5.9657629858
 C        -8.7736217870        2.8766095309        4.6295829809
 C       -10.2758526981        2.5740778748        3.9219197543
 C        -9.7865293999        2.1021190656        2.4494841199
 C        -9.2959014147        0.7005540401        2.5213825863
 O        -7.6814060312        2.6986928018        4.2069979654
 O        -9.6770389077        2.9497383812        1.6087958698
 C       -11.1685397223        1.4636918439        4.8070047260
 C       -11.0146921444        3.9503139154        3.8106203004
 H         6.0554585570        7.0201252154       -9.3734097188
 H         4.9885966677        5.3848077650       -9.5580283676
 H         5.0780746016        6.4590907960       -8.0630616558
 H         7.3943345711        4.9070932246       -5.1175428210
 H         6.4904645757        6.3602783214       -5.8436110257
 H         5.8878107977        2.0288633841       -8.4299570173
 H         7.0025421555        2.7206725145       -9.8104746730
 H         5.3953302216        3.3360467036       -9.3905559975
 H         8.4188150181        4.1764587237       -6.3580279195
 H         8.3852402980        2.4602522768       -6.9134959112
 H         9.1923668090        3.8172858750       -7.7347342444
 H         5.7919778519        5.5983614302       -3.3191489921
 H         4.4077237036        5.4430139310       -4.2999855316
 H         5.9168383730        1.5116004725       -1.0382492487
 H         4.6166883585        0.4217465985       -0.6276458048
 H         2.9755511542        4.4189379699       -1.4689394715
 H         4.9135499208        4.5432333088       -1.4347150820
 H         4.3597508352        3.4043623525       -0.5439100878
 H         2.9712780395        3.2043253130       -4.7193991697
 H         1.9980461591        2.5541917306       -3.3348467685
 H         2.2193019065        4.1814636142       -3.2223180451
 H         6.5596207524        0.5552145208       -3.3192570444
 H         5.3377981856       -0.7459323474       -3.0070503488
 H         8.1858979019       -4.6432350678       -0.7364825759
 H         7.3707425298       -3.2947776932        0.0087649711
 H         7.4572256602       -2.3792293602       -4.5032758792
 H         9.2071996097       -2.4254337158       -4.0883237429
 H         8.3303531004       -0.8968078435       -4.3525275846
 H         9.8827645932       -2.9661758318       -2.1272005903
 H        10.0148584841       -1.3629081263       -1.5251286796
 H         8.9828745456       -2.4751697418       -0.5837083167
 H         6.2524812074       -6.0181463696       -0.7716334917
 H         5.7935671836       -5.0807976225        0.4743376465
 H         0.9280739790       -5.3807523328       -1.3713135101
 H         1.7604553799       -3.8511192241       -0.9887547404
 H         3.7021698502       -6.7049353571       -3.7194964925
 H         5.3161485974       -6.5406959313       -2.9290966356
 H         4.7392807972       -5.1238287781       -3.7251292179
 H         3.4021127776       -6.2225706885       -0.0093023578
 H         2.4650464614       -7.0940122553       -1.3657679338
 H         4.2429570121       -7.2137794832       -1.1628477477
 H        -0.7054292569       -3.7733544128       -2.5344524092
 H         0.5168084093       -2.9253946950       -3.2625178138
 H        -3.2402121697       -0.5402878099        0.4151000135
 H        -4.5726643045       -1.3169673475       -0.5022950501
 H        -1.8585454505       -4.2340387049       -0.0768258543
 H        -1.5696293399       -3.7180843697        1.5424068315
 H        -0.2564557967       -4.1299546128        0.6987572419
 H        -1.7623584389       -0.6471924581        1.5676185249
 H        -0.2817565885       -1.6931005201        1.8424803664
 H        -0.3889028813       -0.3019739257        0.6392675431
 H        -4.6121896643       -3.0725829321        1.2336498029
 H        -3.5571783156       -2.1927781646        2.3316092719
 H        -5.6742263026       -0.7788352948        5.2321630146
 H        -6.2863013000        0.5146192325        4.4696414891
 H        -7.7020340702       -2.7085486510        1.3227168810
 H        -8.0443097342       -3.6769464394        2.8468651118
 H        -6.4865920232       -4.0947502820        1.9534823798
 H        -5.0804020545       -2.7317151233        4.7824904282
 H        -6.2224627631       -3.9113777761        4.5099602686
 H        -4.6632775268       -3.8086410666        3.6014269390
 H        -7.7149646659       -1.3441915116        6.5472400443
 H        -8.4535155823        0.1162587052        5.8666534870
 H        -7.7291603778        4.0223672675        7.7372049749
 H        -7.0724788071        2.8164674092        6.4512102856
 H        -7.6152712829       -0.5430957901        9.9552571265
 H        -8.7580143635       -0.5814313027        8.5965770575
 H        -9.2766252565        0.4079455991        9.9432964495
 H        -6.0245896671        2.7015250582        9.1546995374
 H        -7.3068172564        2.7810932301       10.0519633650
 H        -6.3419736762        1.3679960726       10.3156594039
 H        -9.9311700655        3.4274935713        6.3573169826
 H        -9.0068684261        4.7843296419        5.6782231097
 H        -9.9252814757       -0.0499755868        2.2840711468
 H        -8.4039649737        0.2677046417        2.1372042417
 H        -9.2799183985        0.6893310881        3.6108573204
 H       -10.9938949393        0.3757123688        4.6151205306
 H       -12.1880152894        1.7120776561        4.5062427486
 H       -10.9476911729        1.4560209149        5.9051735020
 H       -11.0381162161        4.3976100935        4.7935452402
 H       -10.3873420628        4.6138800992        3.0920011887
 H       -11.9931373152        3.6864396145        3.3307311746
 Na        3.2539142249       -1.5790486825       -2.4015641877
