155

 C         5.2710317247        7.1468188957       -9.9011370262
 C         5.9448002574        6.4406508811       -8.7036154193
 C         6.5197527475        5.0084838271       -8.9008129049
 C         6.1098124526        4.0888444596       -7.7523050766
 C         6.8603462799        4.2219505244       -6.3473601640
 C         6.3914952462        4.3724306438      -10.4247647304
 C         8.1762730712        5.3097371128       -8.8210557385
 O         6.1827683750        7.2277316644       -7.7569591766
 O         5.3534509893        3.1786315978       -7.9301459261
 C         5.9349193837        3.9903054350       -5.1946193783
 C         5.7946544331        2.5076674674       -4.5985721972
 C         4.4597670343        2.3514242714       -3.7168933132
 C         4.2721290346        0.9975835785       -3.1098477557
 C         5.6415911196        0.1848471148       -2.4906601687
 O         6.5326785102        1.5361004324       -4.8797507825
 O         3.1731369262        0.4712659282       -2.9111687981
 C         4.5168429654        3.4373783710       -2.5765531869
 C         3.2372935664        2.7340603079       -4.5394274968
 C         6.0654772274       -0.9761454911       -3.3439946256
 C         6.4249885376       -2.1538992508       -2.4047095651
 C         7.0531651568       -3.4046432081       -3.2354442832
 C         5.7373067161       -4.1058613345       -3.5808101101
 C         5.3631618877       -5.5124850898       -2.9507610957
 C         7.9349127894       -2.9017516194       -4.4806671567
 C         7.9179845363       -4.1502123730       -2.2642623617
 O         6.1434102845       -2.1361051500       -1.2487530954
 O         5.0016151035       -3.5089788520       -4.3335501562
 C         3.8812830878       -5.8899948956       -3.1392936275
 C         2.8415311105       -4.8011745257       -2.8260608569
 C         1.6229238356       -4.8726590471       -3.6330692996
 C         0.7297419750       -3.6506316077       -3.0524427706
 C        -0.0956575340       -4.0146446966       -1.8484830518
 O         3.0339992417       -3.8424181882       -2.0426223895
 O         0.7553672534       -2.6387048086       -3.6967861604
 C         1.8827267601       -4.6251398828       -5.1026197280
 C         0.9329739149       -6.2782228341       -3.6017005476
 C        -0.8469011889       -2.7823584127       -1.1640811538
 C         0.1140074304       -1.9844151468       -0.2612646585
 C         0.0317115079       -2.2004783761        1.3513243612
 C        -1.3401046682       -2.6344940785        2.0067634879
 C        -1.3018716828       -2.7503763268        3.5038510562
 C         1.1587542926       -3.1695195695        1.5439925114
 C         0.2747448260       -0.8368567540        2.0264063966
 O         0.9801718240       -1.2190536581       -0.5609965399
 O        -2.3659503282       -2.8090686466        1.4100005519
 C        -2.4579798367       -2.1490010759        4.2789940715
 C        -3.4246883004       -3.2265411667        4.6875387293
 C        -4.9824295586       -2.8921830326        4.6600944874
 C        -5.4313378339       -1.6686757975        5.6080897324
 C        -5.0249308249       -1.6087065486        7.2138181954
 O        -2.9946131936       -4.2443219481        5.1826782409
 O        -6.2492713559       -0.9066126970        5.1727549745
 C        -5.2844746814       -2.4790222330        3.1897463431
 C        -5.7035565117       -4.2126710916        5.0889417406
 C        -5.5048271388       -0.3584338424        7.9442654366
 C        -5.0101672145        0.9965975700        7.3635007808
 C        -5.7935338809        2.3202778930        7.8027057427
 C        -6.9138332421        2.8053805077        6.7231207799
 C        -8.1243373838        1.9638399692        6.1445396757
 C        -6.5663031030        1.9129709592        9.0821389187
 C        -4.7157210943        3.4176547919        7.8335714886
 O        -4.1509749982        1.0369770323        6.4869876535
 O        -6.9388193969        4.0058122556        6.5735802439
 C        -8.8923787739        2.8586508990        5.2318340790
 C       -10.3604536490        2.6145765955        5.3657805344
 C       -11.2780098115        3.7437236310        5.1271712702
 C       -11.1569527118        4.0602175682        3.6659055480
 C       -12.3599268086        4.1162320500        2.7290587384
 O       -10.8321119331        1.5942971465        5.8034385199
 O       -10.0344805413        4.1767353350        3.1933962974
 C       -12.8316619561        3.5447111347        5.5965707623
 C       -10.6407967075        4.9903403213        5.8544143847
 H         4.8272318833        8.1647214167       -9.6519939315
 H         5.9481853395        7.3082524158      -10.6881883512
 H         4.5907525949        6.4379021133      -10.4055747988
 H         7.6497061484        3.4262461403       -6.3465280997
 H         7.5427196915        5.0688199108       -6.2396121741
 H         6.8475790459        3.4454023985      -10.6210345311
 H         6.7645091987        5.1280425410      -11.1888187606
 H         5.2988548369        4.2745006662      -10.5707992104
 H         8.5989322426        4.2882538337       -8.7488801716
 H         8.3728176789        6.0051164261       -9.7005027682
 H         8.5242239188        5.9716903727       -7.9774118044
 H         6.2056976028        4.6141760542       -4.3819092582
 H         4.9160012165        4.1957902321       -5.5703323007
 H         6.2967053212        0.9867783316       -2.4556864322
 H         5.2741399496       -0.2490840445       -1.5273629847
 H         3.6408279246        3.3626654054       -1.8604504365
 H         4.4764440834        4.4154558664       -3.0451209258
 H         5.2730331481        3.1483880290       -1.7728921527
 H         3.3691814498        2.4798461585       -5.6019984979
 H         2.3995475359        2.1753060806       -4.0816179129
 H         2.8786161044        3.6529732991       -4.3985191121
 H         6.7676102101       -0.7260760932       -4.1437284275
 H         5.3195081317       -1.4562356815       -3.9081886232
 H         5.8870641384       -6.3638805516       -3.2838043990
 H         5.4631031623       -5.3754318633       -1.8465809998
 H         7.2968299348       -2.2559480777       -5.1018312094
 H         8.1689562308       -3.7251381315       -5.0491823134
 H         8.7855986910       -2.3264349598       -4.1586917804
 H         8.4764570140       -5.0804100763       -2.6402021742
 H         8.7364194543       -3.3642136061       -2.0293646869
 H         7.3761244705       -4.5262977256       -1.4019558574
 H         3.8894116906       -6.1009049634       -4.2602414467
 H         3.5522392084       -6.9712895008       -2.7038010617
 H        -0.9379897194       -4.7358317420       -1.9227113062
 H         0.5364677477       -4.6021991207       -1.1456771017
 H         2.6134909318       -3.8839294956       -5.3376169904
 H         0.9522607570       -4.3367904700       -5.5856067102
 H         2.1520885331       -5.4553782694       -5.6719462131
 H         1.0916521773       -6.6131085613       -2.6063099002
 H        -0.1232355366       -6.3632853531       -3.6341852709
 H         1.3755549400       -7.0825011373       -4.2590055277
 H        -1.7792448257       -3.1558185876       -0.5862580653
 H        -1.1683594458       -2.1274149703       -1.8840660942
 H        -1.2920727204       -3.9118667487        3.6664546851
 H        -0.3155947780       -2.4779441287        3.9023840186
 H         0.8605916064       -4.1436643160        1.2158414183
 H         1.1600185532       -3.3140811142        2.5665707360
 H         1.8981497589       -2.7089495617        0.9508301630
 H         0.7750239110       -0.1952745359        1.3471303545
 H        -0.7081912572       -0.4887282652        2.2599463203
 H         0.8678749165       -0.7425516586        2.9307309854
 H        -2.3086998800       -1.5492007300        5.1584361694
 H        -2.9572513382       -1.4955175085        3.6194901425
 H        -5.4573852757       -2.5345935691        7.4809782415
 H        -3.9962874625       -2.1259644915        7.2374854059
 H        -4.7319001553       -1.5320993224        2.9155732550
 H        -6.3027935941       -2.0086416514        3.0293238559
 H        -4.9573923438       -3.2311917596        2.4745552666
 H        -5.5619096310       -4.3868015336        6.1040654969
 H        -6.7801154619       -4.1462947371        4.8760204051
 H        -5.3491815589       -5.1334026529        4.6740932706
 H        -4.9466564538       -0.3263792667        8.8777825349
 H        -6.5906593906       -0.2414567932        8.2824416169
 H        -7.9089137959        0.9975630483        5.6646624486
 H        -8.8496465973        1.7767428049        7.0799224381
 H        -5.8712940237        1.4311322353        9.7300295648
 H        -7.4507195294        1.3006632956        8.8408845620
 H        -6.8200998270        2.8244502826        9.7123181159
 H        -4.0644254930        3.1412705600        7.0593547985
 H        -5.0989676533        4.3639673200        7.6619808416
 H        -4.2887817589        3.3394790985        8.7420288479
 H        -8.6001524171        3.8502526190        5.4318782620
 H        -8.8003028923        2.7571958830        4.1603849685
 H       -12.1188647630        3.2405487167        2.2259794575
 H       -13.2978969295        4.1809815114        3.1387977206
 H       -12.3162648927        5.0148006837        2.1213354082
 H       -12.7957532910        2.6408210385        6.1621682329
 H       -13.6249991665        3.5541292754        4.8813692508
 H       -13.0117149224        4.3597961317        6.3089141677
 H       -11.4693290213        5.6956779005        6.2344537672
 H        -9.9434983571        4.7901660223        6.6700354164
 H       -10.1815558536        5.5976500794        5.1350265578
 Na        2.5309331181       -1.6930811360       -2.1798586110
