155

 C         5.6666585683        7.4888903831       -9.9874878185
 C         5.9694967938        6.4765036907       -8.7796572929
 C         6.7132113895        4.9299116248       -9.0859935107
 C         6.0735332154        4.0849550162       -7.8692623161
 C         6.9540006862        4.1664564616       -6.5676773822
 C         6.1754046823        4.4003947571      -10.4155638546
 C         8.1503461831        5.1111601301       -9.2201819171
 O         5.8013243409        6.6691035108       -7.5880038358
 O         4.9880415901        3.5795587138       -7.8542859899
 C         6.0779949780        4.1985095289       -5.2438841633
 C         5.8760674056        2.8257095672       -4.6574643730
 C         4.4333186638        2.4266661864       -3.9058919898
 C         4.3257540075        0.9636853605       -3.3550216882
 C         5.5290420881        0.2342620779       -2.7032696603
 O         6.8312902028        2.0409622592       -4.6600510421
 O         3.2468249908        0.4238661635       -3.2996200563
 C         4.1206531127        3.3108715457       -2.6462208294
 C         3.2881044464        2.5573419454       -4.9630388125
 C         6.1078149737       -0.9792150462       -3.5297657522
 C         6.3265183616       -2.3355542641       -2.6644810958
 C         6.7237837984       -3.6259045753       -3.3711865262
 C         5.3425545941       -4.3330914485       -3.7810290597
 C         4.9686636317       -5.5632076894       -2.9045494270
 C         7.4913535517       -3.2801573800       -4.7637002145
 C         7.6755679024       -4.2696011097       -2.3909758744
 O         5.9816208967       -2.4092828794       -1.5262729726
 O         4.7883018026       -4.0966428859       -4.8360913778
 C         3.4577299742       -5.8654713781       -3.2650350440
 C         2.6006143666       -4.6204828664       -3.1945675517
 C         1.1612614942       -4.6566325872       -3.7599552787
 C         0.4188619322       -3.4965460740       -2.8809340742
 C        -0.1262730942       -3.9573507820       -1.5092118990
 O         3.1150063110       -3.6611626122       -2.5560776986
 O         0.4667749148       -2.3413595170       -3.2527146418
 C         1.3445315011       -4.0186161345       -5.1847330843
 C         0.4838536510       -6.0628233257       -3.7231286271
 C        -0.6120175146       -2.7582275417       -0.5725828453
 C         0.4609695267       -2.1880755800        0.3009945674
 C         0.4470475251       -2.3041502426        1.8557469460
 C        -0.9789916940       -2.7453611833        2.5150938534
 C        -0.9754631689       -2.8822002336        4.0618727695
 C         1.5825851873       -3.3975099102        2.1051536923
 C         0.8924602801       -0.8253052428        2.4660533673
 O         1.3690640306       -1.5706225880       -0.1568485800
 O        -1.9102205070       -3.1315387925        1.8432276875
 C        -2.3591847845       -2.4501070053        4.7057886162
 C        -3.5001141384       -3.5098733657        4.8379963887
 C        -4.9913695580       -3.0266162190        4.7487121068
 C        -5.4622240254       -1.7055407030        5.5870075599
 C        -4.8153511716       -1.5116534569        6.9659866695
 O        -3.1854231786       -4.6077875856        5.1616458192
 O        -6.1318269765       -0.8898880348        5.0577684735
 C        -5.2239321150       -2.7248085862        3.2152310679
 C        -5.8923510339       -4.1204857717        5.2959830532
 C        -5.6260044826       -0.3167359180        7.7105413973
 C        -5.0724397620        1.0628987638        7.1588842465
 C        -5.6306040906        2.4191674498        7.5469547480
 C        -6.4521365378        2.8792512587        6.3563962396
 C        -7.8538533977        2.2103821627        6.1445894209
 C        -6.4131521826        2.3341176049        8.9155303199
 C        -4.3660476601        3.4539780085        7.8947880385
 O        -4.0892100582        1.0467894423        6.3962406269
 O        -5.9607096688        3.7049445863        5.5515245445
 C        -8.8330369304        2.6543371647        5.0288139751
 C       -10.2984983439        2.5837701297        5.5792048534
 C       -11.3550081960        3.7544270408        5.3539746914
 C       -11.3462628044        4.3728885596        3.9884730778
 C       -12.6964146107        4.7030871181        3.2020052426
 O       -10.6174001452        1.5834390512        6.2042441197
 O       -10.2791106231        4.6743135890        3.4686535672
 C       -12.7225211580        3.4490135824        5.8694064076
 C       -10.7120683545        4.9380894928        6.1972424121
 H         4.8559527059        8.2019480493       -9.7496932035
 H         6.4920535947        8.0756479688      -10.2385792347
 H         5.3221499304        6.8801797562      -10.8457608623
 H         7.8281721126        3.4332982866       -6.6745687428
 H         7.4911651459        5.0924066586       -6.7151813980
 H         6.2526340201        3.3515442693      -10.5005044211
 H         6.7750436194        4.7790606591      -11.1733656601
 H         5.1699846642        4.7341773374      -10.5537007635
 H         8.4788114340        4.0904633477       -9.0553324252
 H         8.2191383815        5.2317319013      -10.3065477001
 H         8.7460066778        5.9660527936       -8.7561129571
 H         6.5836672555        4.7807910764       -4.5416408730
 H         5.1230385358        4.6532479718       -5.4927519138
 H         6.2685744339        0.9132667823       -2.6820054429
 H         5.1192233013       -0.0104249577       -1.6869337272
 H         3.5571742130        2.7383594761       -1.8105482799
 H         3.6025315685        4.2888520178       -2.7936373553
 H         5.1141072826        3.7226270057       -2.2494570601
 H         3.4272042094        1.9530554478       -5.8202550152
 H         2.2477297521        2.4126680417       -4.5378429160
 H         3.3204500314        3.6172592958       -5.3307871590
 H         7.0670413831       -0.5580384892       -3.9236847363
 H         5.5980614021       -1.2670079133       -4.4176863698
 H         5.5820779708       -6.3650614608       -3.2190705607
 H         5.1563108446       -5.3111839482       -1.8012001068
 H         6.6193187570       -3.1060907679       -5.4601957830
 H         8.0943476570       -4.0537278136       -5.0727522125
 H         8.0299177615       -2.3509053699       -4.7093267211
 H         8.0821719975       -5.2762882382       -2.5664089287
 H         8.6080809527       -3.7040888417       -2.6198713017
 H         7.3206600473       -4.0532134368       -1.3867663122
 H         3.5659722778       -6.0745174285       -4.3883958141
 H         2.9789694654       -6.8200167585       -2.7361331999
 H        -0.9662518611       -4.7048356565       -1.7467343469
 H         0.6825164522       -4.3984744620       -0.9539848829
 H         1.7168617922       -3.0766091562       -5.3149437940
 H         0.2827194814       -3.8826525763       -5.5702005311
 H         1.9565608684       -4.5735261268       -5.8854704344
 H         0.4152159477       -6.4795727105       -2.7627740044
 H        -0.5051499001       -6.0188434252       -4.1396243410
 H         0.9490261109       -6.7833160878       -4.4430379999
 H        -1.4231180225       -3.0728014840        0.0931248647
 H        -0.8661304801       -1.9348338607       -1.1486234582
 H        -0.7865842094       -3.9915201804        4.2719430188
 H        -0.2309729988       -2.2702107239        4.5502361942
 H         1.1388988542       -4.3321337796        1.7586192936
 H         1.8113268312       -3.3319444504        3.1361146876
 H         2.2600938473       -3.0360366030        1.3983434499
 H         0.3358390171       -0.0380014840        1.9784224981
 H         0.5932100597       -0.8324895786        3.5489588533
 H         2.0061800961       -0.6735536429        2.5481397471
 H        -2.1434908011       -2.0427741736        5.6643615509
 H        -2.7587629400       -1.6451420140        4.1957279788
 H        -4.4864269370       -2.4789330553        7.3734494428
 H        -3.7442010936       -1.1959757337        6.5535554909
 H        -6.1652138333       -2.1003250310        3.0265038775
 H        -5.2077538219       -3.6643712025        2.5627013673
 H        -4.3874510943       -2.2325459283        2.6373375595
 H        -5.7147293273       -4.3562487580        6.3242845434
 H        -7.0212771666       -3.9138252798        5.0521998680
 H        -5.8236578089       -5.0517980822        4.7598061585
 H        -5.4717377995       -0.3654798202        8.7802563866
 H        -6.7637987814       -0.2335980463        7.5161206718
 H        -7.7718750681        1.1351849212        5.9167321882
 H        -8.3808956359        2.2841214640        7.1759203024
 H        -5.6153173741        2.0170779587        9.7394571217
 H        -7.0747209462        1.4731946720        8.8117175284
 H        -6.9875200206        3.1885097351        9.2774532396
 H        -4.1216017294        4.0391287495        7.0495344165
 H        -4.7742495664        4.1130105157        8.5251978951
 H        -3.6610395650        2.9440304296        8.3480532882
 H        -8.6738309740        3.5704717310        4.4809470787
 H        -8.7686660245        1.9037850167        4.2212913683
 H       -12.7695408150        3.8822138526        2.5820710330
 H       -13.5551126753        4.8043426203        3.7692638104
 H       -12.5904533846        5.6904275998        2.7573005327
 H       -13.4800400705        4.0690333780        5.4234384097
 H       -12.7237776720        3.5315374674        6.8924503722
 H       -12.7904847463        2.3412294612        5.7537310328
 H       -10.7815259754        5.8527367894        5.5733969851
 H       -11.0382181696        5.0696066848        7.2062207374
 H        -9.6211947053        4.8584203388        6.2493877125
 Na        2.2221880795       -1.5649621057       -2.4278905826
