155

 C         6.3849899940        7.4940643458       -9.9393452356
 C         5.9911047439        6.5958525349       -8.7436992182
 C         6.3805793064        4.8691680881       -8.9678090462
 C         6.0482048157        3.9682278021       -7.7910007991
 C         6.8504317896        4.2696881157       -6.5127059489
 C         5.7145683027        4.2962867650      -10.3145525610
 C         7.9264934469        4.8164954841       -9.3266622603
 O         5.5102321168        6.9080522525       -7.6927309168
 O         4.9719000856        3.4242125061       -7.6301726027
 C         6.0442611490        4.1464838703       -5.1713570835
 C         5.8500641562        2.6930735211       -4.7500054209
 C         4.3834441216        2.2816309793       -4.2126085498
 C         4.2097787765        0.7921751529       -3.6873948747
 C         5.3049888619        0.0897273154       -2.9654509283
 O         6.7146560208        1.8994009337       -4.6508305532
 O         3.1445370920        0.2580513430       -3.8739064661
 C         4.1986250900        3.2823675734       -3.0518864058
 C         3.3509024179        2.4839907925       -5.2799363382
 C         5.8858259265       -1.1177127958       -3.7165070970
 C         6.0055673119       -2.4646541576       -2.9960229507
 C         6.6755274772       -3.7414391988       -3.8567161835
 C         5.3436516142       -4.5063739349       -4.2018564095
 C         4.6061922661       -5.4183362747       -3.0343442433
 C         7.5598209871       -3.3919776155       -5.1677599516
 C         7.4432116274       -4.4479226671       -2.6323972819
 O         5.7398050770       -2.6740861253       -1.8365270217
 O         4.8047552129       -4.3643433359       -5.2884333265
 C         3.0933869019       -5.5445385602       -3.4154373186
 C         2.3269220492       -4.2346704492       -3.2656973838
 C         0.8386999230       -4.1729784038       -3.6271302697
 C         0.0446866840       -3.2469335412       -2.6939239415
 C        -0.2200589141       -3.8777506091       -1.3090917541
 O         2.8232252961       -3.2277458776       -2.6854982362
 O        -0.4202874524       -2.1907561623       -3.1075988742
 C         0.9256468774       -3.6732648812       -5.0613121507
 C         0.0983784088       -5.6659194036       -3.5787555463
 C        -0.4942967542       -2.7809760378       -0.1499631583
 C         0.8027607403       -2.5482188006        0.7422790456
 C         0.6198097563       -2.5295006928        2.3110890775
 C        -0.7887527256       -2.8468657235        2.9138776943
 C        -0.9564452036       -2.8239802870        4.4431304212
 C         1.6163757330       -3.6811361926        2.8582579658
 C         1.1718003312       -1.2100074396        2.9054478857
 O         1.8552633541       -2.2231919664        0.2702834041
 O        -1.7186282018       -3.0771459434        2.1424132469
 C        -2.3369612676       -2.2100408018        4.7848009225
 C        -3.4105091356       -3.3394626097        5.0446404072
 C        -4.9151429166       -3.0520461957        4.7787318770
 C        -5.2832969787       -1.7051183395        5.3295518962
 C        -4.8753468377       -1.6410488067        6.7919537887
 O        -2.9768909795       -4.5004308094        5.1817394857
 O        -5.8891325912       -0.7793311648        4.8104747470
 C        -5.0976354503       -3.0315064017        3.2540351776
 C        -5.6494368886       -4.3447123803        5.3083160780
 C        -5.3107387564       -0.2895663966        7.4480834734
 C        -4.5358899392        0.9334036504        6.8869356751
 C        -5.2957529403        2.5204737722        7.2470813271
 C        -6.2306533992        2.6979288002        5.9797063687
 C        -7.7277219901        2.3573663428        6.0943885015
 C        -6.0387251172        2.4654676037        8.6498502516
 C        -4.3384019510        3.6473889798        7.2933626920
 O        -3.4636751817        0.8054997508        6.3419197166
 O        -5.7636801794        3.0006866611        4.9230102871
 C        -8.7319827049        3.2377955408        5.3908204396
 C       -10.1111983474        2.8080319070        5.8140336347
 C       -11.3047165549        4.0698114877        5.8161158557
 C       -11.3186634492        4.5757031275        4.3450969840
 C       -12.7395600240        4.9392333826        3.6733593013
 O       -10.4841879933        1.6343849833        5.7333761879
 O       -10.2809625449        4.6716585397        3.7333048045
 C       -12.6098049199        3.3124974681        6.1306705155
 C       -10.9976401760        5.2099016947        6.8644029482
 H         6.0769340731        8.4760152967       -9.7035241293
 H         7.4383890818        7.5225823748      -10.1893960279
 H         5.6641954164        7.1875393998      -10.6956177726
 H         7.8669516951        3.7174677576       -6.3595951591
 H         7.0637063777        5.3244013122       -6.5764385890
 H         6.1362557647        3.4091059341      -10.7679875071
 H         5.4228587744        5.0131594010      -10.9372484463
 H         4.7502575641        4.0306577546       -9.8829069482
 H         8.1328834254        3.8442095792       -9.7029916822
 H         8.1575493894        5.4652933949      -10.1061482673
 H         8.5195540261        5.0005462259       -8.4386507992
 H         6.7736295784        4.5308010297       -4.4978193204
 H         5.1320948456        4.7691852418       -5.1315167660
 H         6.0130351153        0.8262211488       -2.6550897022
 H         4.9801792541       -0.3993016491       -2.0363646541
 H         3.1833434414        3.5227552571       -3.1452131697
 H         4.7687757385        4.1705559247       -2.9255203265
 H         4.4843940487        2.9126889093       -2.0976574710
 H         3.1154856142        1.5842564184       -5.7843182347
 H         2.3627134351        2.7408167543       -4.8339149470
 H         3.7364109696        3.2477449089       -6.1390772832
 H         6.9557391689       -0.9684033736       -4.0992525005
 H         5.2245895370       -1.3329111184       -4.5692311001
 H         5.1490012472       -6.3282698977       -3.0382100472
 H         4.7297413856       -4.8324352413       -2.0610512151
 H         6.9771470391       -2.6087463445       -5.7492060040
 H         7.5995918707       -4.2597769658       -5.8108945000
 H         8.5917552203       -3.0603415184       -4.9690779995
 H         7.7039614441       -5.4427466258       -2.8612740292
 H         8.3414546444       -3.9094412383       -2.5502476436
 H         7.1059069924       -4.3488976990       -1.5875679578
 H         2.9732001079       -5.8327830844       -4.5475714838
 H         2.5444331737       -6.3270725793       -2.8118436682
 H        -1.1665006214       -4.3973631058       -1.3989493157
 H         0.6602871460       -4.3991241787       -1.1476010330
 H         1.2241511540       -2.6521075883       -4.9068488506
 H         0.0307917298       -3.4151107023       -5.6723280835
 H         1.8353066902       -3.9522648902       -5.6121718378
 H        -0.1070477201       -6.0557775242       -2.5795751481
 H        -0.8085135506       -5.6995804779       -4.2371122073
 H         0.7562101011       -6.3570539038       -4.1485820072
 H        -1.3225459088       -3.2453181306        0.3555198904
 H        -0.7340161961       -1.9293778262       -0.7109004465
 H        -0.8946580179       -3.8295467089        4.8273952205
 H        -0.2049583205       -2.1454324599        4.7872683012
 H         1.3259073091       -4.5157697354        2.2079919016
 H         1.4409313732       -3.6180592592        3.8713917252
 H         2.5840059691       -3.3312733983        2.8107982498
 H         1.0584308875       -1.2447188163        3.9793840219
 H         2.2903281772       -1.1615603447        2.7560328414
 H         0.7419384099       -0.3310782734        2.3643693997
 H        -2.2828042974       -1.6493634750        5.7224149556
 H        -2.5357723653       -1.5224816414        4.0407059929
 H        -5.4523351369       -2.4859210495        7.2235320534
 H        -3.7539838489       -1.9511319309        7.0915603588
 H        -6.0057221754       -3.4772923150        2.9006870947
 H        -4.2361221561       -3.3756406684        2.6359652834
 H        -5.4382147611       -2.0285337851        2.8144550208
 H        -5.5135332020       -4.5718090545        6.3942907995
 H        -6.7837118552       -4.2460925371        5.3119518204
 H        -5.5601142795       -5.2035823505        4.6098143735
 H        -5.1906799418       -0.3266965406        8.5283715407
 H        -6.4071738013       -0.2380256076        7.2327776578
 H        -7.8490811817        1.3499666908        5.7543365448
 H        -7.8595981393        2.2619220929        7.1677961046
 H        -5.1669190277        2.7829370292        9.3584274668
 H        -6.3382184990        1.5217371783        9.0796110607
 H        -6.8457978774        3.0934341221        8.8312666130
 H        -3.5627688401        3.5398017151        6.6538791962
 H        -5.0205616524        4.3259532431        6.8636980107
 H        -4.1174769548        3.9071735387        8.3132449055
 H        -8.5517085939        4.3142300105        5.4737827717
 H        -8.7764994193        3.0144957596        4.2831413559
 H       -13.4084391753        4.0608861128        3.7541290971
 H       -13.1733161997        5.7924163070        4.2728996702
 H       -12.4604043115        5.1807885206        2.6481240067
 H       -12.3534912151        2.2741099394        5.7692356663
 H       -13.4770355138        3.6487891351        5.6664683671
 H       -12.6217653716        3.3410411411        7.2606406627
 H       -11.9307056460        5.7598337806        7.0914544532
 H       -10.6046764502        4.9010167567        7.8080946759
 H       -10.2916315682        6.0020327000        6.4339403195
 Na        2.2972668447       -1.0612996632       -2.0751918590
