155

 C         6.8453463086        7.2228750892       -9.7804160900
 C         6.1799901284        6.3634964916       -8.6592560856
 C         6.3028699550        4.9074401368       -8.9474647518
 C         5.9657962628        4.0077192555       -7.6717010431
 C         6.6054061211        4.3679874414       -6.2654082200
 C         5.2503609147        4.5438668605       -9.9178081620
 C         7.6889289722        4.4428200889       -9.5335675772
 O         5.4871458741        6.9337949678       -7.8446197434
 O         5.2280648730        3.0293432748       -7.7209370701
 C         5.9325069995        3.8484459150       -4.9690853332
 C         5.6478000471        2.3250487829       -4.9270770889
 C         4.1590918561        2.1204607067       -4.2523088727
 C         3.9373672922        0.6062924996       -3.5925051675
 C         5.1618683847       -0.0321989835       -3.1279702662
 O         6.2868510744        1.3775397153       -5.2843201784
 O         2.8081230286        0.2079450390       -3.2995386149
 C         4.0498280050        2.9745031649       -2.9433899147
 C         3.0338867161        2.3768557215       -5.4012877359
 C         5.7133028337       -1.1122859990       -4.0841402758
 C         5.9626354483       -2.5271149370       -3.2922174537
 C         6.5205325560       -3.8127579276       -4.0720196875
 C         5.2680837076       -4.5943609721       -4.5121386976
 C         4.4025715982       -5.2150959170       -3.2248130213
 C         7.3012809916       -3.2448967404       -5.2829973445
 C         7.4283470670       -4.5632550567       -3.1096781014
 O         5.7317125286       -2.7214024432       -2.1399701069
 O         4.8123233487       -4.6843658695       -5.6625656986
 C         2.9857881641       -5.4372719922       -3.5629391334
 C         2.1511446941       -4.1694402703       -3.4197754023
 C         0.4567719197       -3.9784547023       -3.6902037516
 C         0.0292260635       -3.0246339808       -2.5308457002
 C        -0.2698407560       -3.7122526953       -1.0750093749
 O         2.6703694369       -3.0773785521       -3.0591910965
 O         0.0809901466       -1.8256752056       -2.6637600845
 C         0.2854355690       -2.9156414060       -4.9575576992
 C        -0.2321564542       -5.1940774950       -3.8086910237
 C        -0.4968699054       -2.5785709936       -0.0164245192
 C         0.7996347897       -2.3626326986        0.8679915386
 C         0.8773211179       -2.5007301180        2.4554944683
 C        -0.6134786916       -2.6542636569        3.1230946052
 C        -0.8115158489       -2.2893953137        4.5270360050
 C         1.5799066862       -3.9298357864        2.7882125882
 C         1.7366725079       -1.3763198068        3.0421873656
 O         1.8280286326       -2.1342948785        0.3212623888
 O        -1.4749553005       -3.2266755956        2.4716853491
 C        -2.3176137413       -1.9714033850        4.9870624280
 C        -3.2023892449       -3.2434221754        5.1442698481
 C        -4.6820546379       -3.1286372775        4.7928769919
 C        -5.1623593370       -1.7898054127        5.3917728611
 C        -5.0411752930       -1.6329513229        6.9825015173
 O        -2.7405220530       -4.3863172367        5.4319778830
 O        -5.4765031233       -0.7981985926        4.7048759296
 C        -4.7358011772       -3.0153684594        3.2270141959
 C        -5.5188543577       -4.3245082721        5.3297877621
 C        -5.5087992790       -0.2826262519        7.4952531229
 C        -4.4721017787        0.8221621029        6.9889352606
 C        -4.9498190412        2.2787012191        6.7631431605
 C        -6.1303894680        2.3711091667        5.6721604122
 C        -7.5568487014        2.1248211637        6.0951701043
 C        -5.3445729084        3.0002742659        8.1162590473
 C        -3.7363154527        3.2356464518        6.2467379906
 O        -3.3115205219        0.5372617212        6.8092538901
 O        -5.9166549928        2.8009935623        4.6298595751
 C        -8.5010632504        3.3724080169        6.3477276403
 C       -10.0209701840        2.9655936094        5.9097325099
 C       -11.1315964498        4.0929970516        5.9227601772
 C       -11.3541905462        4.8002182629        4.4612473275
 C       -12.8661029448        5.0736742452        4.3081732559
 O       -10.3536968737        1.8628569659        5.5708087143
 O       -10.4977378531        5.1049647429        3.7154368464
 C       -12.5144605750        3.3193831583        6.2799731158
 C       -10.8095891552        5.1942321410        6.9921721989
 H         6.6014580128        8.2013554892       -9.5296166393
 H         7.9612500463        7.1391826886      -10.0752685117
 H         6.1237892841        7.1195178385      -10.6130966492
 H         7.6337634825        3.7946071480       -6.3421677564
 H         6.6621948770        5.4058282895       -6.2200515381
 H         4.7477210915        3.5434036205       -9.7844852536
 H         5.7294330893        4.5409699618      -10.9019713924
 H         4.5456709260        5.3625092897      -10.0962878660
 H         7.8447913945        3.3698256653       -9.4650058524
 H         7.5441963441        4.6187070855      -10.5509086970
 H         8.5623408346        4.9505677971       -9.2177564690
 H         6.7198965465        3.8836076640       -4.1680834604
 H         5.2124692585        4.5671621558       -4.5047218018
 H         6.0135976382        0.5044761826       -2.6626101819
 H         4.8737171382       -0.5771842123       -2.2791845150
 H         3.3223127593        2.5048401598       -2.3232310851
 H         3.7571787781        4.0411089798       -2.9000961304
 H         5.0281241459        2.9045158817       -2.4059075889
 H         3.6008715871        2.2905600884       -6.3887529921
 H         2.2158615896        1.6240837300       -5.4699316907
 H         2.7248463193        3.4216036502       -5.3299592684
 H         6.6819445000       -0.7127696820       -4.5072901147
 H         4.9068477366       -1.3621888818       -4.7699562993
 H         4.8891023297       -6.1385671959       -3.0208849823
 H         4.6096232039       -4.5260981807       -2.3388910362
 H         6.5492978976       -2.8204634469       -5.9358381596
 H         7.8310021002       -3.9878531232       -5.9622514529
 H         7.9671461535       -2.4168565942       -4.9611798965
 H         7.8261726091       -5.4473763467       -3.5488039491
 H         8.1733804907       -3.9462895546       -2.6936840049
 H         6.8133836617       -4.9310989385       -2.2260262851
 H         2.7829117320       -5.8328881508       -4.5712071086
 H         2.5787128892       -6.1748040941       -2.9085510047
 H        -1.1938134844       -4.3423707914       -1.2326023153
 H         0.6017793503       -4.2306276226       -0.7486166729
 H         0.7636303101       -1.9206759000       -4.8703373703
 H        -0.7823131569       -2.6963225942       -4.9891260054
 H         0.5178738370       -3.2399131241       -5.9984438577
 H         0.0409920229       -5.9867850263       -3.0969208190
 H        -1.3102314775       -4.9200572763       -3.6074899705
 H        -0.1340065953       -5.5333368080       -4.8267371790
 H        -1.2747861879       -3.0832083682        0.4876609010
 H        -0.7258189193       -1.5397076443       -0.4611337799
 H        -0.5565098190       -3.1275230664        5.1332851264
 H        -0.1806405408       -1.4235387762        4.7393475580
 H         0.7448224485       -4.5775793907        2.4630031377
 H         1.8720002109       -3.7193727200        3.8353222928
 H         2.4607569687       -3.9424021097        2.1100500336
 H         2.4897664256       -1.1889453295        2.2817626251
 H         1.2717174555       -0.4181787919        3.1325188650
 H         2.1926175807       -1.7582146828        3.9304559912
 H        -2.1281687709       -1.4182995263        5.9586012708
 H        -2.7675425471       -1.3490134419        4.2452663320
 H        -5.7929670416       -2.3316454696        7.4863163284
 H        -4.0127495160       -1.6280649930        7.3817812523
 H        -5.6685008698       -2.9813770825        2.7966892346
 H        -4.4483740793       -3.9351579535        2.7891736770
 H        -4.1879672514       -2.2395898941        2.7146710160
 H        -5.5030324542       -4.5030689589        6.4740168873
 H        -6.5453214326       -4.3342578317        5.1806562986
 H        -5.0126085187       -5.2899648232        5.0672970465
 H        -5.6698857943       -0.2841557476        8.5755942870
 H        -6.4855740224       -0.1910934246        7.0340120673
 H        -8.0006069588        1.4342228173        5.4218390724
 H        -7.4524791074        1.5881537115        7.0012608263
 H        -5.3435166550        2.1959862620        8.8527107492
 H        -6.4051380718        3.2736332673        8.1757013914
 H        -4.7683891764        3.7666538991        8.5375161202
 H        -3.8775340678        3.2542837046        5.1529392261
 H        -4.0817191416        4.1462451353        6.7483830032
 H        -2.7186502086        2.9367386840        6.5052677190
 H        -8.3415887804        3.6742807859        7.4002574615
 H        -8.2453078855        4.3007302073        5.7432161748
 H       -13.2130971256        4.6760263131        3.3153617690
 H       -13.3549826070        4.6092981797        5.1882051183
 H       -12.8030043746        6.1306349690        4.1560441609
 H       -12.9349675681        2.7343585468        5.4231207849
 H       -13.1685656964        4.0019665130        6.7973602742
 H       -12.2227120640        2.4690755604        6.9342000246
 H       -11.2737503579        6.1186330326        6.7796463363
 H       -11.2219515508        5.0857958422        7.9591885677
 H        -9.6842124083        5.2879373657        7.1364314742
 Na        1.9482978036       -1.2374588167       -1.8333353236
