155

 C         7.2880966723        6.9837886027       -9.1805129528
 C         6.5352707294        5.9203609766       -8.3863771938
 C         6.1140325171        4.5659666984       -9.0720943738
 C         5.5584303886        3.6334334576       -7.9285473245
 C         6.5936629756        3.5079870910       -6.7318418583
 C         5.0219095587        4.8399614803      -10.2517100594
 C         7.3346381137        3.8838447079       -9.7060078755
 O         6.2105264132        6.0986446850       -7.1757118937
 O         4.5427320791        2.9717588628       -7.9317682968
 C         5.6911673709        3.6425987042       -5.4978548346
 C         5.0880772978        2.3768904459       -5.0488448543
 C         3.8606373871        2.1852903923       -3.9171833536
 C         3.7411266827        0.7910378099       -3.3583240934
 C         4.9115674910       -0.1716435239       -3.2453940958
 O         5.4824028628        1.3449796334       -5.4967903976
 O         2.5919152419        0.4493522984       -2.9634632012
 C         3.8493723630        3.0886812545       -2.6788689869
 C         2.6197482461        2.7323076309       -4.7752954040
 C         5.0095902937       -1.4491252959       -4.2827531568
 C         5.7514922200       -2.6380206520       -3.6260963499
 C         6.2352120720       -3.8451559973       -4.5332961338
 C         4.8928425980       -4.4909260064       -5.0060630829
 C         3.9257605863       -5.2946700194       -4.0388568315
 C         7.0771659960       -3.3558161570       -5.7359037174
 C         7.0673772477       -4.8402077244       -3.6766542654
 O         5.9630792480       -2.5833962708       -2.4242212385
 O         4.4662715422       -4.1688653952       -6.1133628821
 C         2.4593539169       -5.1728430985       -4.3281443420
 C         1.8569769929       -3.9129958400       -3.5983536274
 C         0.2600532182       -3.6464253334       -3.5326417241
 C         0.0080348058       -2.8380853213       -2.2689666187
 C        -0.1692321530       -3.5499156543       -0.9366343258
 O         2.6260233192       -3.3651959962       -2.8552475699
 O         0.0428732083       -1.5900756374       -2.1646622798
 C         0.0342023229       -2.5948181396       -4.8559504371
 C        -0.6072238310       -4.9543249384       -3.7320563325
 C        -0.4853258435       -2.6573167674        0.3132596515
 C         0.5988249458       -2.1216400083        1.1018199200
 C         1.0041407616       -2.7359648195        2.4726899469
 C        -0.3601551990       -2.6895509691        3.3221033234
 C        -0.6248136096       -1.6460500152        4.3998106325
 C         1.2727809636       -4.2670992273        2.2395361717
 C         2.1997380796       -1.9437178976        2.9967718307
 O         1.4606273894       -1.2916365834        0.6530293604
 O        -1.2462927582       -3.4712705955        2.9870671651
 C        -2.0731533337       -1.4775251543        4.7270520334
 C        -2.6389107948       -2.7623231388        5.2689804635
 C        -4.1061639541       -3.0235361748        5.0052332549
 C        -4.9085475811       -1.7131325650        5.5066483017
 C        -5.4523804053       -1.7861501344        6.8555427224
 O        -1.9510856242       -3.5233633612        6.0003298096
 O        -4.9187488787       -0.6976150169        4.8165604549
 C        -4.3071962261       -3.1608334064        3.5085001005
 C        -4.6332378242       -4.3658050287        5.5834050885
 C        -5.7447294775       -0.2214295023        7.2718773184
 C        -4.5235196697        0.6167599724        6.9200326006
 C        -4.6464440171        2.0043324918        6.2680880955
 C        -6.0997784828        2.2306064710        5.5620098252
 C        -7.3925408507        2.3918924512        6.4860952050
 C        -4.0869588200        3.0938694005        7.2782294658
 C        -3.5189617107        1.9835552555        5.1540724012
 O        -3.4102282324        0.2566052012        7.1600456216
 O        -6.1280556377        2.5964511323        4.4044845315
 C        -8.2880043937        3.5460458598        5.8986575282
 C        -9.8985364367        3.2258330563        5.8568086888
 C       -11.0803283761        4.1735640056        6.4193246190
 C       -11.2723559514        5.0405879266        4.9945570246
 C       -12.6573086824        5.8341464265        4.7169261437
 O       -10.2381297395        2.1454181813        5.4917516699
 O       -10.3632404991        5.2411091075        4.2328570655
 C       -12.3133301850        3.2705949012        6.7166459254
 C       -10.4245884902        4.9885839765        7.5516433136
 H         6.8336108641        7.9284269422       -9.0653999091
 H         8.2013915968        6.9637595768       -8.6601025198
 H         7.6102687633        6.6731550637      -10.1649705129
 H         6.8183110225        2.4416147526       -6.8661196570
 H         7.4355696991        4.2648587414       -6.6200405014
 H         4.6878205353        4.0052779275      -10.8463482746
 H         5.3900325810        5.4670142536      -10.9195277843
 H         4.1457179670        5.2204024359       -9.7513084813
 H         7.4381613317        2.8853534770       -9.4638472744
 H         7.2840397757        3.9362258618      -10.7357902289
 H         8.2934269357        4.3353106340       -9.5050082046
 H         6.0019047222        4.1333514037       -4.6016355138
 H         4.8749274415        4.2735333775       -5.7990763326
 H         5.7183628555        0.4026860307       -3.4981725107
 H         5.0905316583       -0.6034247283       -2.1819281921
 H         3.3124529737        2.5561973768       -1.9006823581
 H         3.3800015272        4.0073279018       -2.8191218597
 H         4.8026210003        3.1550756873       -2.1227134436
 H         1.9148348334        2.1539753414       -4.2502172868
 H         2.4586793227        3.7821599705       -4.4365792147
 H         2.5087843978        2.6548282074       -5.9463685371
 H         5.4386945746       -1.1161672261       -5.2366793505
 H         3.9237653019       -1.6011867385       -4.4367072501
 H         4.2674321435       -6.3366170057       -4.2267211023
 H         4.1831030748       -5.2255552275       -2.9833764309
 H         6.2952451094       -2.9915362307       -6.5134394643
 H         7.6429998448       -4.1690701944       -6.1307485473
 H         7.7950440696       -2.5265872570       -5.5178175120
 H         7.4176734673       -5.7133581067       -4.1555401770
 H         7.9916114911       -4.2747364465       -3.5192616083
 H         6.6456435297       -5.1031849072       -2.7299056915
 H         2.0800410494       -5.3477084522       -5.4373330451
 H         2.0086670186       -6.0853298378       -3.7687152309
 H        -0.9385330401       -4.2311393811       -1.1880756768
 H         0.6385222415       -4.2602901253       -0.7919446151
 H         0.5831181546       -1.7372719233       -4.7914865789
 H        -1.0715349213       -2.3527561142       -4.9184064386
 H        -0.0781449002       -3.0742740336       -5.8248117693
 H        -0.3659100400       -5.6654798867       -2.9471238022
 H        -1.6210915654       -4.6079618367       -3.7352858446
 H        -0.3382498268       -5.3975483098       -4.7343810414
 H        -1.1428259321       -3.2940413757        0.8881775495
 H        -1.0049839516       -1.8356425158        0.0105794577
 H        -0.1460297323       -1.8816540056        5.4182288740
 H        -0.1523549064       -0.7207190183        4.1141840947
 H         0.3350961501       -4.7167557583        2.0340795888
 H         1.4916498813       -4.6900829324        3.1465419922
 H         1.8991841162       -4.1693365961        1.4421759912
 H         2.1327397142       -1.7576327373        4.0456532039
 H         3.1601428040       -2.5113952852        2.8881556778
 H         2.2115705580       -0.9346964211        2.5724185122
 H        -2.1714150065       -0.7702333320        5.4833855121
 H        -2.5413189319       -1.1438683469        3.8457201355
 H        -6.3462308736       -2.2686263054        6.8005192338
 H        -4.6829333240       -2.0076114780        7.6642657799
 H        -5.2598015823       -3.5647559976        3.2487597091
 H        -3.6893726778       -3.8508807232        2.9016582943
 H        -4.0125213533       -2.1379730464        3.0973079992
 H        -4.5720046347       -4.6152497088        6.6630607318
 H        -5.6698582358       -4.6402757210        5.1650240165
 H        -4.0877982017       -5.2338647340        5.1231094476
 H        -6.0459396401       -0.0584151975        8.3243202938
 H        -6.7581555137        0.0515496021        6.7432797335
 H        -7.9910399678        1.4442143630        6.6261005570
 H        -6.9693053733        2.7073672456        7.5282488453
 H        -4.7778253199        3.3144124203        8.2540677955
 H        -4.1555941447        4.0609938346        6.8816943364
 H        -3.0751235230        2.8437262853        7.5863320150
 H        -3.5381514461        0.9541494432        4.8065377707
 H        -3.9298920125        2.4951196956        4.4047729171
 H        -2.6067246721        2.2815439118        5.4145261177
 H        -7.9736453064        4.4364314394        6.4504398670
 H        -8.0003463639        3.7063272650        4.8530452516
 H       -13.4996984022        5.2010709705        4.8076322198
 H       -12.7045023692        6.6944752133        5.4207651151
 H       -12.4160183918        6.2354314855        3.7426870781
 H       -12.0499310787        2.1970294256        6.8862108684
 H       -13.1127509173        3.2858058898        6.0447516745
 H       -12.8503797535        3.6761678998        7.6263981232
 H       -11.0539303071        4.8758303006        8.4563850599
 H        -9.4805182564        4.5374355799        7.8152881899
 H       -10.4082491534        6.0376833895        7.5772828084
 Na        2.3277920213       -1.5035649200       -1.6032206710
