155

 C         7.9631960994        6.3258994685       -8.9700032830
 C         7.0293684416        5.3112361983       -8.5262171861
 C         5.8493743758        4.6277526519       -9.5304967753
 C         4.9471180295        3.7663712065       -8.6123930401
 C         5.4453397230        2.4856987639       -7.7366215011
 C         5.2210192591        5.8613005702      -10.1271997965
 C         6.6957834744        3.8015568001      -10.5399102434
 O         6.9768125243        5.1881282483       -7.3486381352
 O         3.7237803933        3.9960372065       -8.5257282767
 C         5.6620898529        2.6934828285       -6.2284250548
 C         4.7161212689        1.9951016247       -5.3237346398
 C         4.5884256399        2.3265015600       -3.7002680460
 C         4.3192468085        0.8576468418       -3.0496585393
 C         5.1679127703       -0.3456886477       -3.3671603979
 O         4.0029626544        1.1248049988       -5.7554978186
 O         3.3578661358        0.8201786724       -2.3035526805
 C         5.8554310935        2.8373752655       -3.0627844114
 C         3.3880122980        3.1605626783       -3.3511683092
 C         4.5560601913       -1.7317731243       -3.0640772652
 C         5.4161431115       -2.7192021099       -3.8413197346
 C         4.9370852771       -3.3055967090       -5.2453396700
 C         3.4211722919       -3.7243325534       -5.0484010274
 C         3.0617982929       -5.0133633223       -4.4021165894
 C         5.0062380425       -2.3068514365       -6.3755701570
 C         5.7909029020       -4.6420802834       -5.4788773787
 O         6.5632434666       -2.8950513247       -3.6108695310
 O         2.4865811109       -2.9975849344       -5.4074078939
 C         1.5740862679       -5.1719817116       -3.8693760039
 C         1.0401213661       -3.8647353497       -3.2678965264
 C        -0.6024245195       -3.6916654655       -3.2505085446
 C        -0.7734875609       -2.9873758153       -2.0140273861
 C        -0.9639070029       -4.0428017531       -0.7698421029
 O         1.8253598746       -2.9867186189       -2.7861046178
 O        -0.6409271684       -1.7780347804       -1.8597261901
 C        -0.7953227113       -2.6933381405       -4.6241524876
 C        -1.3873346902       -5.0707728162       -3.3915816115
 C        -0.6659956071       -3.4365881456        0.6715586564
 C         0.7685569332       -3.0882582906        0.7869338336
 C         1.5625088298       -3.8546992770        1.9024655868
 C         0.5532146980       -3.8694224350        3.2092983901
 C        -0.0110371732       -2.5223473305        3.6008883329
 C         1.9868358324       -5.4465328497        1.6485498389
 C         2.8779924169       -3.1318255743        2.4948208376
 O         1.3501321928       -2.4119853164       -0.0376510173
 O         0.3677652513       -4.9575060331        3.7235549635
 C        -1.5934420315       -2.5440396325        3.8547971126
 C        -1.8615767240       -2.7767042494        5.4107454174
 C        -3.3018548787       -3.2799560419        5.8292430704
 C        -4.2323212195       -2.0489487016        5.4762702407
 C        -4.7363670660       -1.1019707064        6.5722428671
 O        -1.0603354567       -2.5011707171        6.2920832882
 O        -4.3908130016       -1.8733071088        4.2873912737
 C        -3.7658955227       -4.5656891541        5.1302640586
 C        -3.1675801866       -3.6002931565        7.3200692514
 C        -5.6586953088        0.0274090510        5.8430369898
 C        -5.2114205233        1.5148234401        6.4060684625
 C        -4.7618936419        2.6378057225        5.3746454060
 C        -6.1023611665        3.0356380830        4.7457003055
 C        -7.0853280886        3.8156750412        5.5642674000
 C        -4.1384134578        3.8629480807        6.0932145653
 C        -3.8352791704        2.1980784896        4.2256327708
 O        -5.1244866502        1.7498032218        7.5529854574
 O        -6.2365699067        2.8131658422        3.5529141514
 C        -8.4853573044        3.1445036144        5.9018546507
 C        -9.0787207646        3.6509072945        7.2041566947
 C       -10.4869072996        4.3188815572        7.1284231776
 C       -10.4391272300        5.6069212363        6.2394525672
 C       -10.5418266426        6.8934329378        7.0213010953
 O        -8.5517743297        3.4570471649        8.2943595572
 O       -10.3916439091        5.6856990103        5.0331191223
 C       -11.4775429279        3.2212690053        6.6078810672
 C       -11.0169944706        4.6079881089        8.5831779222
 H         8.7272442276        6.3708923466       -8.2113354869
 H         8.5097972949        6.0644692643       -9.9031314041
 H         7.4776399767        7.3427529888       -8.9554310584
 H         4.9629684110        1.5756733540       -7.9544934672
 H         6.4796732052        2.2640154112       -8.1105668770
 H         4.3809142875        5.4309984488      -10.6483605146
 H         5.8007464836        6.4307764930      -10.9028245753
 H         4.8662514432        6.4352792789       -9.2933320872
 H         5.9956300703        3.2232030243      -11.1081115247
 H         7.2852730476        4.4207633006      -11.1411488479
 H         7.3291865205        2.9700477236      -10.1745173004
 H         6.5814878716        2.0967507710       -6.1257692590
 H         5.8931128966        3.7232244878       -5.8996406780
 H         5.3139325212       -0.4019368101       -4.4492542904
 H         6.3382897012       -0.1660962192       -3.1450519464
 H         6.0024026728        2.7118167467       -2.0072387431
 H         5.9519317352        3.8440985085       -3.3308229813
 H         6.6953271739        2.2759286421       -3.5277881401
 H         3.5526746700        4.2404748919       -3.7876477311
 H         2.5136366258        2.6463141332       -3.7771914040
 H         3.2708378527        3.1248656640       -2.2531154597
 H         3.5126093186       -1.7003462405       -3.2676299341
 H         4.6609698760       -1.8468812864       -1.9463306251
 H         3.1895822174       -5.7904051666       -5.2227152051
 H         3.6467011067       -5.2602626740       -3.5606935750
 H         4.3119992474       -1.4652528144       -6.2646653002
 H         4.7456832988       -2.8982930465       -7.1997833800
 H         6.0109042952       -1.9123498447       -6.5670332470
 H         5.1469407850       -5.3738514871       -5.9505827116
 H         6.5452752375       -4.3850895013       -6.2382004239
 H         6.2173983266       -5.0614621679       -4.5586658338
 H         1.0819667010       -5.6712255502       -4.7653125137
 H         1.6861402386       -5.9337323166       -3.0127995047
 H        -1.9729567476       -4.3437387376       -0.7482322118
 H        -0.2677999020       -4.8328499546       -1.0071296542
 H        -0.0295413260       -1.9681130189       -4.6514261949
 H        -1.7002642055       -2.0053114192       -4.4265373019
 H        -0.8723492964       -3.2248455334       -5.6373060207
 H        -1.5554401445       -5.5537254625       -2.4406735787
 H        -2.3457071107       -4.8762464876       -3.8084681237
 H        -0.7812050793       -5.6483012406       -4.1558289877
 H        -1.1620922490       -4.1545641107        1.2942925883
 H        -1.2203455979       -2.5766224132        0.7215151812
 H         0.5375450373       -2.2369141949        4.4605323977
 H         0.3597919553       -1.8465886369        2.7083310843
 H         1.1477167644       -6.1039565573        1.3607593299
 H         2.3735126914       -5.7395783785        2.6215442562
 H         2.6661277174       -5.4062554864        0.7974008629
 H         3.7619038802       -3.5146128759        2.1133627134
 H         3.0508960558       -2.1140495559        2.0881074244
 H         2.8019943273       -3.0497281296        3.5760563818
 H        -1.9915168701       -1.6776557779        3.4926255333
 H        -1.9848607606       -3.4322719325        3.4122941386
 H        -5.1807648288       -1.6261304523        7.3594837228
 H        -3.8704048666       -0.8055285210        7.1386119940
 H        -3.8776905379       -5.2725571905        5.9270080401
 H        -3.0152792867       -4.8546707582        4.3273556601
 H        -4.7065850604       -4.3439467691        4.6688065640
 H        -2.5423933646       -2.9114961817        8.0381976177
 H        -4.1470805018       -3.9841325679        7.6353296713
 H        -2.5360215335       -4.5562376765        7.2561845856
 H        -6.6885541380       -0.2925954887        6.1113185883
 H        -5.4235841045        0.1121057395        4.6842214819
 H        -6.6736819621        4.0866662480        6.5480985268
 H        -7.2564098696        4.8475706766        5.1453337760
 H        -3.2789691704        3.4945947514        6.6034711032
 H        -4.7918817694        4.2593162691        6.9376663564
 H        -3.9117099600        4.6252808085        5.2636325801
 H        -4.1929474699        1.3592831264        3.8292298350
 H        -3.9043945745        2.9033872915        3.4341159324
 H        -2.7637390722        2.0913871368        4.4218339101
 H        -9.0240232039        3.1924861602        4.9352553100
 H        -8.2750860746        2.1064554688        5.9883170479
 H        -9.4622777659        6.9836907299        7.1729956734
 H       -11.0947259113        7.7015305380        6.4148243458
 H       -10.8766726062        6.7878306612        8.0652160256
 H       -11.8049258473        2.3645671916        7.2263438139
 H       -11.1045814552        2.8780110975        5.7492866699
 H       -12.3930437581        3.6496575381        6.1276963832
 H       -10.9168212953        3.5536129612        8.9113830255
 H       -10.2719241620        5.2098668294        9.0874042421
 H       -12.0260738696        4.8821345626        8.6311039045
 Na        1.6028787139       -0.8093272941       -1.7803655720
