155

 C         8.0361733597        4.8134109724       -8.2785182603
 C         6.8731466453        3.8780324224       -8.2546635183
 C         5.3568677720        4.3673875913       -8.5638359788
 C         4.6139748817        4.5494355332       -7.1645669825
 C         3.0783164209        4.0795593232       -7.0520183664
 C         5.2511433540        5.7900682083       -9.2492672629
 C         4.7518517857        3.2293532832       -9.5728041134
 O         7.1036356147        2.6450790893       -8.1400257803
 O         5.0281056137        5.1661790136       -6.1720455216
 C         2.8816047722        3.7287535607       -5.5713359847
 C         3.0975034980        2.2291307571       -5.3008100967
 C         4.0664551400        1.7927345016       -3.9855471572
 C         3.8560893569        0.3302072861       -3.5783637216
 C         4.6197378596       -0.8121423854       -4.2217887421
 O         2.5500636780        1.3828036123       -5.9315350165
 O         3.0821383024        0.0547221314       -2.6582296994
 C         5.5656075691        2.1288043531       -4.4495623275
 C         3.7455236677        2.7237881065       -2.7877703157
 C         3.6760070915       -1.6621006517       -5.1781380762
 C         4.1260222320       -3.0767452375       -5.5329447629
 C         3.5358005466       -3.7526329769       -6.9245494593
 C         2.1369867883       -4.1681155626       -6.3439059081
 C         1.8746395780       -5.4283211465       -5.5988387111
 C         3.3656422777       -2.5167429133       -7.9489998979
 C         4.5130060132       -4.7169989167       -7.5287744211
 O         4.7150388984       -3.7874032734       -4.7729642386
 O         1.2718531318       -3.3742021851       -6.3727488603
 C         0.6407271637       -5.2262547741       -4.7644974393
 C         0.8009698876       -3.9361229164       -3.8932435850
 C        -0.4759548679       -3.1644922528       -3.5290299425
 C        -0.3352957286       -2.5753226366       -2.0421268044
 C        -1.1036730432       -3.2223606223       -0.8988537342
 O         1.9810999581       -3.6517721414       -3.5293963618
 O         0.1779372078       -1.5434339421       -1.8196562609
 C        -0.6842463933       -2.0828110481       -4.6194292326
 C        -1.7692165834       -4.1306538893       -3.4151734405
 C        -0.4752830062       -3.0387040397        0.4912754936
 C         0.9011416950       -3.6567992137        0.8852779457
 C         1.0726352788       -4.6225910108        2.1242504092
 C        -0.1672872007       -4.4885537497        3.1383024078
 C        -0.3296679117       -3.1814355477        4.0757753224
 C         1.0485287905       -6.0689829455        1.6768840731
 C         2.3384552073       -4.4784895471        2.8961938519
 O         1.8793948375       -3.5833045919        0.0604424702
 O        -0.8638370545       -5.4514862512        3.2801979220
 C        -0.0548322465       -3.4487419814        5.6521275008
 C        -0.2655179601       -2.1822400929        6.4695258864
 C        -1.8223429222       -1.8979200269        6.7685947671
 C        -2.2257220915       -0.8941600997        5.6892773199
 C        -1.8333035416        0.6656820601        5.9402450710
 O         0.5777580972       -1.3430576023        6.7994294878
 O        -2.7434735963       -1.1293311529        4.6086396489
 C        -2.7669759509       -3.1668965062        6.7731206990
 C        -1.8588910101       -1.1648630522        8.1474684807
 C        -2.5921838235        1.7046645751        5.2166984599
 C        -4.1808541487        1.8264170154        5.3998417306
 C        -5.1833834651        2.5076534748        4.3536587182
 C        -6.4626859750        2.7290126840        5.2721348593
 C        -6.4198902244        3.6370292383        6.5391445263
 C        -4.8468279235        3.9454618573        3.8072606564
 C        -5.4431904063        1.4850351051        3.2060006419
 O        -4.7880212218        1.0516059870        6.1032818715
 O        -7.4509833097        2.2232945531        4.8968122901
 C        -7.3697921977        3.0245101731        7.5395384029
 C        -8.1967068069        4.1393242083        8.2456599755
 C        -9.7041093589        4.6779945795        7.8493704358
 C        -9.2221835881        6.0953431189        7.5707823871
 C        -9.4520418678        7.3040715367        8.3834928529
 O        -7.6249778356        4.5593554240        9.2314320685
 O        -8.4207041858        6.0969930965        6.6175388511
 C       -10.1644819324        3.9986667449        6.4671708098
 C       -10.7204491627        4.5809609067        9.0065424198
 H         9.0454656296        4.4152722638       -8.1741259153
 H         7.9908530953        5.2107903967       -9.3170614083
 H         8.0489965824        5.7509724374       -7.6732980125
 H         2.5394738549        5.0163205524       -7.3527496669
 H         2.8419200305        3.3467432886       -7.8243573876
 H         4.3886660797        6.2881848166       -9.2784980004
 H         5.7401992021        5.7042149371      -10.2490281489
 H         5.9082450868        6.4298059191       -8.7500338022
 H         3.6861104579        3.2929912945       -9.8990897433
 H         5.2259293647        3.4599128643      -10.5522097551
 H         5.0226055384        2.1660575207       -9.2226527069
 H         3.7359364432        4.2323621856       -5.1476413334
 H         1.9481563077        4.1133472369       -5.3738837796
 H         5.5046297178       -0.3492605053       -4.7358117613
 H         4.9035418527       -1.2858998358       -3.3466987113
 H         6.3265275735        1.9143827255       -3.7150982364
 H         5.4273188477        3.0890774180       -4.8538128972
 H         5.8073335271        1.4020051956       -5.1002201820
 H         2.7629352987        3.2680797307       -2.9241684278
 H         3.6006649761        2.0786205730       -1.9182940187
 H         4.4366424995        3.5128774383       -2.4057909693
 H         3.4948861949       -1.0161723081       -6.1213175866
 H         2.7489625182       -1.9636114955       -4.7066950917
 H         1.7805979059       -6.3420068212       -6.1723863118
 H         2.6448560857       -5.5049567898       -4.7874892799
 H         4.2552575952       -1.8178559225       -7.8632524212
 H         2.5930797118       -1.8888872646       -7.6882429637
 H         3.1971401570       -2.7874697562       -8.9556332335
 H         4.1214169623       -5.0519887991       -8.5677173193
 H         5.4825385950       -4.2161984133       -7.7653705464
 H         4.7137227996       -5.5652009386       -6.9335303504
 H        -0.1172399354       -5.2998656440       -5.4666568255
 H         0.5814979804       -6.0948214427       -4.1424949576
 H        -1.8518405041       -2.5224373580       -0.8914792056
 H        -1.4168939073       -4.1821392179       -1.1620924701
 H        -1.0026205002       -1.1700117099       -4.2128377894
 H        -1.4204464003       -2.6128590299       -5.3268574977
 H         0.2258660323       -1.8547600681       -5.2119620980
 H        -1.5959914619       -5.0144065848       -2.8076119390
 H        -2.6573773450       -3.5685915315       -3.0869168838
 H        -2.1070621030       -4.4394816204       -4.3702813735
 H        -1.2429714496       -3.3307437705        1.1194086535
 H        -0.3806275823       -1.9090473681        0.6166206506
 H         0.3955158561       -2.4005906694        3.7264595065
 H        -1.2684078163       -2.7342371362        3.9090151171
 H         0.2051235902       -6.2578008791        1.1115414934
 H         0.8381808810       -6.7882777935        2.4269481933
 H         1.8740470466       -6.2890805193        1.1116855583
 H         2.1049764272       -5.0944606663        3.8048966131
 H         3.1504876259       -4.8451563311        2.2878652142
 H         2.5828676902       -3.4974048619        3.2731831740
 H        -0.6968009623       -4.2591380645        6.0656107638
 H         0.9435774949       -3.8148125582        5.6945680627
 H        -1.8917418204        0.8480180307        7.0492732918
 H        -0.7519324675        0.9540326116        5.6326528256
 H        -2.5519754811       -3.8888360504        5.9887263947
 H        -3.7857914240       -2.7460312720        6.7757913634
 H        -2.6440504103       -3.7900318092        7.6279113437
 H        -0.9049197254       -0.5387421247        8.0796864693
 H        -2.8101422492       -0.6808824099        8.4397522882
 H        -1.7255342131       -1.8452393086        9.0063261420
 H        -2.5501782176        1.4319988979        4.1393801615
 H        -2.1009114688        2.6988804249        5.3720488581
 H        -5.3812524900        3.9759916331        6.8437792343
 H        -6.8299042627        4.6329314755        6.1804333476
 H        -5.7898275724        4.1998525876        3.5880837821
 H        -4.2747361493        3.9938703273        2.8287352488
 H        -4.3506591005        4.5092445045        4.6955747842
 H        -5.5640032460        0.4259133138        3.4213598961
 H        -6.3608353532        1.9148913933        2.6367887981
 H        -4.5006205365        1.4546755861        2.5725638260
 H        -7.9780701669        2.2281459632        7.1227987834
 H        -6.8134737532        2.5608614724        8.4119610421
 H        -8.8595745759        8.1373669115        7.9415734598
 H       -10.4439366280        7.5561329815        8.6752455921
 H        -8.8845071362        7.0795143559        9.3749319440
 H       -10.7274444736        4.7708936392        5.8853023037
 H       -10.6918328138        3.1394697886        6.6724182626
 H        -9.2212688118        3.6801324486        5.9663120453
 H       -10.8509621389        3.5229849117        9.2618605842
 H       -10.2658810844        5.2519142715        9.7495174229
 H       -11.5837742927        4.9112002328        8.5253655614
 Na        2.4928134862       -2.0458070055       -2.0453442942
