155

 C         7.7874328803        4.4270934983       -7.6068935367
 C         6.6267868846        3.5361743742       -8.1325879596
 C         5.1454138506        4.3033604002       -8.2940446818
 C         4.6597002541        4.2728090010       -6.8799115697
 C         3.0508260298        4.2317190711       -6.7658087458
 C         5.2125421779        5.8719696577       -8.7425009275
 C         4.3871144626        3.4705674727       -9.2386276547
 O         6.6483723389        2.3695895341       -8.4031087111
 O         5.4161622881        4.2633847156       -5.9460668784
 C         2.4715176195        3.4583844027       -5.6141813600
 C         2.9394780073        2.0352167781       -5.2847138488
 C         4.0138270737        1.7906153431       -4.1121033376
 C         3.8554144890        0.2635235428       -3.6597725668
 C         4.3893589617       -0.8683428395       -4.5670943423
 O         2.7687078135        1.2160369090       -6.1350082034
 O         3.3054484473       -0.0626574372       -2.5912755532
 C         5.4580537078        1.9477605906       -4.6806822873
 C         3.8544301796        2.7089164463       -2.8848956502
 C         3.2543513370       -1.5379159923       -5.4178022412
 C         4.0063191534       -2.8037949790       -6.0036514583
 C         3.3375170049       -3.4621176161       -7.2977255759
 C         1.8996596695       -3.7730753936       -6.7801016137
 C         1.7541268267       -5.0324647183       -5.8366234797
 C         3.3297688365       -2.6847497304       -8.5270230991
 C         4.0813315930       -4.7980944983       -7.5180037451
 O         4.8331492606       -3.3916122150       -5.3451147536
 O         0.9825491940       -3.0513484189       -6.9342255419
 C         0.3885920089       -5.0578116418       -5.0995834066
 C         0.4898741093       -4.1355220580       -3.8443485278
 C        -0.7854460631       -3.3295288302       -3.3321724769
 C        -0.5487362887       -2.7632884495       -1.9753848385
 C        -1.2619041076       -3.4405729597       -0.7344369683
 O         1.6041345373       -3.9055358363       -3.3888444812
 O         0.2700989282       -1.9668714367       -1.6901253213
 C        -0.8368173609       -2.1529344768       -4.3124500012
 C        -2.0937456837       -4.1659965477       -3.3875184792
 C        -0.5231462790       -2.8988530604        0.4524201029
 C         0.7364122247       -3.6783890454        0.8055892072
 C         0.7982978038       -4.5622664392        2.1137420888
 C        -0.2529108171       -4.2311338319        3.2224354812
 C        -0.1999293559       -2.9008997273        3.9119845675
 C         0.5305515173       -6.0190368866        1.6266083347
 C         2.2900881337       -4.5550421151        2.7806845573
 O         1.7866248472       -3.7308136999        0.0794953089
 O        -1.0527837448       -5.0456808069        3.4899252641
 C         0.1159639221       -3.0845434714        5.4843035890
 C        -0.1256469925       -1.8848007614        6.3520846676
 C        -1.5608212472       -1.2486019221        6.5701655899
 C        -1.6220232606       -0.2226932005        5.5047937826
 C        -1.3907908400        1.2423520720        5.8181531754
 O         0.8281482642       -1.4526966698        6.9672497967
 O        -2.0858578796       -0.3532182779        4.4025085794
 C        -2.6318599559       -2.2941395423        6.3803056157
 C        -1.4898916255       -0.7252036307        8.0270497083
 C        -2.3969392146        1.9730342066        5.0505676805
 C        -3.7870275512        1.4959907248        5.3644354817
 C        -5.1267138210        2.0793287787        4.5983836715
 C        -6.5186549471        2.2997172700        5.3023368157
 C        -6.3805126588        2.5714428562        6.8418136799
 C        -4.9404345686        3.5589779339        3.9349048367
 C        -5.5677860263        0.9809999955        3.5196578067
 O        -3.9960961306        0.8074928615        6.3920983258
 O        -7.5735174817        2.4849489403        4.7511818839
 C        -7.6508737114        2.4619535495        7.7724746949
 C        -8.0258476511        3.8489174825        8.4644323834
 C        -9.2937983712        4.7733943601        8.0636195788
 C        -8.7919724859        6.2387331511        7.5505698329
 C        -9.4472354201        7.5981648922        7.9419266337
 O        -7.3388773563        4.2264405110        9.4345955956
 O        -8.0468443022        6.3614501492        6.5656560063
 C       -10.0586521795        4.1956899875        6.7974544757
 C       -10.0742321898        5.0513180646        9.3284662180
 H         8.7655566631        3.9479139110       -7.1915781310
 H         8.0367267386        5.0501878931       -8.5344561666
 H         7.6753804886        5.1799920641       -6.8492732019
 H         2.7909505624        5.2825584412       -6.7909768399
 H         2.7562726536        3.8601899115       -7.8020434854
 H         4.2032384305        6.2502186729       -8.9622032195
 H         5.7209354500        5.9943609742       -9.7028243213
 H         5.5503313437        6.6765628520       -8.0202181434
 H         3.3546500183        3.9834997901       -9.4663095141
 H         4.9212486012        3.2063248439      -10.2200966873
 H         4.2787261349        2.4514365220       -8.7757211679
 H         2.6806375317        4.1773109459       -4.8341333054
 H         1.3953985487        3.4092666748       -5.8330289971
 H         5.1602612462       -0.4453622508       -5.2912691813
 H         4.8893673542       -1.6968064417       -4.1131492826
 H         6.0319856992        1.0522308941       -4.2187416545
 H         5.8269953814        2.9481206358       -4.5000993076
 H         5.3608089622        1.7481072123       -5.7617020819
 H         3.1130252873        2.4195002072       -2.0336367803
 H         4.7750485803        2.7953105446       -2.3674444433
 H         3.6001279298        3.7204782033       -3.1917056176
 H         2.8831850266       -1.0766736704       -6.3474127120
 H         2.4929485676       -1.9505059573       -4.6975460209
 H         1.9172062192       -6.0020224020       -6.2959461742
 H         2.4686626555       -4.9499040258       -4.9493723071
 H         4.3892365809       -2.6999959937       -8.8815972339
 H         3.1504779509       -1.6560658776       -8.3767097819
 H         2.6973306132       -2.9291173439       -9.3518498604
 H         3.6847255062       -5.5196653167       -8.2806041611
 H         5.1108083191       -4.6073714385       -7.9431727652
 H         4.2897174551       -5.2757608258       -6.5554707454
 H        -0.3790745112       -4.6746416264       -5.7491549232
 H         0.1416751677       -6.0194691434       -4.8825967033
 H        -2.2193002267       -3.0701479478       -0.7437877657
 H        -1.2215356365       -4.4853976335       -0.8346362142
 H        -1.8410219642       -2.1239109270       -4.5576808061
 H        -0.3331232518       -2.2802997314       -5.2924092901
 H        -0.4764855558       -1.2347066941       -3.8153591045
 H        -1.8799976797       -5.1000911068       -2.9031521885
 H        -2.7989422788       -3.5962388974       -2.8161744738
 H        -2.5007468417       -4.5231840468       -4.3252454432
 H        -1.2080653925       -2.8509076595        1.2472549246
 H        -0.1768021422       -1.8475312863        0.2167199182
 H         0.4680551999       -2.0855901099        3.5476748052
 H        -1.1641409489       -2.5440799524        3.9258447098
 H        -0.4808447532       -6.3103204181        1.3725317844
 H         0.8150320541       -6.9077811870        2.2761659830
 H         1.1710875234       -6.1732327232        0.7639134778
 H         2.7095985492       -3.5017356721        2.8672250210
 H         2.2112251311       -4.8604060697        3.8371333632
 H         2.9517245741       -5.2718440873        2.2906930082
 H        -0.5430819272       -3.9340260897        5.7105977426
 H         1.0979041241       -3.4495081020        5.6404904420
 H        -1.5841372876        1.4756870320        6.8996861854
 H        -0.3270212526        1.5702951737        5.6806692187
 H        -2.8263514095       -2.5185126152        5.3824550208
 H        -3.4989771764       -1.9418576543        6.8688799875
 H        -2.3098671771       -3.2127364378        6.6951774569
 H        -0.6239917554       -0.0178398518        8.3724093005
 H        -2.4833288271       -0.3393062349        8.2683483854
 H        -1.2789588580       -1.5989975853        8.6777564396
 H        -2.2991224429        1.9126264513        4.0430175959
 H        -2.2451931375        3.0429009548        5.3916254200
 H        -5.4747844412        2.0455780594        7.2495358700
 H        -6.1169739777        3.6668174037        6.8653535267
 H        -6.0155653889        3.9020607976        3.6587284752
 H        -4.1593794990        3.4216779779        3.1890688559
 H        -4.6614459935        4.2325008694        4.7613758770
 H        -5.6986621889        0.0769677758        4.1101200440
 H        -6.4614042754        1.2482096231        2.8349008936
 H        -4.5011144560        0.6929895400        2.9892263277
 H        -8.4928026758        2.0268845908        7.3153744186
 H        -7.4724178615        1.6363914127        8.4426273941
 H        -8.9274823815        8.3163755674        7.3640866536
 H       -10.5439207555        7.6623102146        7.8035673751
 H        -9.2086743627        7.9564173653        8.9970591513
 H       -10.9896144333        4.6525460807        6.7119210683
 H       -10.2395566939        3.0397096170        6.9353012207
 H        -9.3329041559        4.2164398440        5.9935693950
 H       -10.4240965649        4.0684880742        9.7698083261
 H        -9.2805700208        5.5043162609       10.0171646191
 H       -10.8990590023        5.6100324530        8.9601498886
 Na        2.6106257672       -2.3465171384       -1.6135993116
