155

 C         7.4568824047        3.9349138868       -7.1806407907
 C         6.3852476693        3.4024359417       -8.1879974169
 C         5.0108344200        4.3128428748       -8.1890083924
 C         4.3514450821        4.3815741209       -6.7692496776
 C         2.9314318833        3.9618248400       -6.5509843223
 C         5.4637344025        5.6935801855       -8.4736050300
 C         3.9698074859        3.6578701846       -9.2385990758
 O         6.3230454624        2.2916601586       -8.5219450553
 O         4.9389640843        4.9450295966       -5.9203129263
 C         2.7742785362        3.3408596997       -5.0870022709
 C         3.4185387832        1.9520658042       -5.0026242638
 C         4.0926946811        1.4652340287       -3.7133658236
 C         3.8328180099       -0.1023660504       -3.7221038838
 C         4.4226174444       -1.2237024496       -4.5760265059
 O         3.3344258858        1.2164853664       -5.9694438357
 O         2.8693555683       -0.3344441992       -2.9280461656
 C         5.5959944944        1.8324999312       -4.0576064408
 C         3.6176607951        2.0783985156       -2.4890801288
 C         3.2744716422       -2.0252219140       -5.3491389764
 C         3.9241406196       -3.0513749148       -6.3421676626
 C         3.0553327967       -3.6318096211       -7.5376414542
 C         1.5827795699       -3.9644516767       -7.0828328263
 C         1.2881109678       -5.2165422889       -6.2075197320
 C         3.1604744540       -2.6876587603       -8.7437836853
 C         3.9035614672       -4.8918619085       -8.0970654355
 O         5.1166751203       -3.3163212614       -6.3073756625
 O         0.6720074365       -3.1863479354       -7.3020664160
 C         0.0732479429       -4.9810022936       -5.2222617545
 C         0.2983783233       -4.0603587008       -4.0927680184
 C        -0.9281972619       -3.2354912470       -3.4095332298
 C        -0.6528806433       -2.7160098740       -1.9924942253
 C        -1.3039956844       -3.4215850137       -0.7557608261
 O         1.4036097587       -4.0284950671       -3.5837727431
 O        -0.0687674095       -1.7395882714       -1.7919597869
 C        -1.4191632696       -1.9968140483       -4.2786016157
 C        -2.1207192097       -4.1957829972       -3.3141980882
 C        -0.7246127290       -2.9549811167        0.6282535687
 C         0.6013630225       -3.6189979176        0.9647350604
 C         0.7374813709       -4.7713787530        2.0525591527
 C        -0.1541140250       -4.1652467184        3.3757278359
 C         0.4777498499       -3.0415039927        4.2143885028
 C         0.2112104020       -6.1270332325        1.6459929745
 C         2.2075643469       -4.8164823319        2.5317541599
 O         1.5999350939       -2.9937814048        0.5000231753
 O        -1.2352292618       -4.6223488960        3.4628066948
 C         0.2607934251       -3.1530762665        5.8271479468
 C         0.1469804336       -1.5909462447        6.3235444773
 C        -1.2076326739       -0.8330901463        6.3588933930
 C        -1.0168152320        0.2278676524        5.2454098955
 C        -0.9174996105        1.6958105747        5.6824238601
 O         1.0869905953       -0.9739514676        6.7608417916
 O        -1.0323904909       -0.0025039575        4.0874224013
 C        -2.5177924427       -1.6763119655        6.0717886907
 C        -1.3405202830       -0.2186783303        7.7485345908
 C        -2.2610970193        2.4523860803        5.3239450816
 C        -3.7661508983        1.7415555013        5.5096340673
 C        -5.1424029559        1.9807905088        4.7289972781
 C        -6.4407579881        2.0034910775        5.5573558804
 C        -6.4544343282        2.1555169191        7.0309115409
 C        -5.1023453861        3.2326956488        3.9366392912
 C        -5.4549044035        0.7797452030        3.8530554864
 O        -3.8475882182        0.8997505882        6.4158313148
 O        -7.4992824485        1.9319835175        4.9123135817
 C        -7.8140602224        2.4493014915        7.7354810697
 C        -7.8761941061        3.9109699168        8.4171869782
 C        -9.1424177624        5.0156805412        8.2352633535
 C        -8.3789379491        6.1148670363        7.5166588678
 C        -8.9459510455        7.5683956575        7.5837831139
 O        -7.0250236187        4.2937269629        9.1922641647
 O        -7.3478433995        5.8327076892        6.9308138001
 C       -10.2645472123        4.3615011918        7.3533165706
 C        -9.7113667509        5.2959814382        9.6916167623
 H         8.1587916616        3.0704539326       -6.9221742933
 H         8.1248769616        4.8254243869       -7.3822197578
 H         7.0852146979        4.3584628519       -6.2825210587
 H         2.3209973481        4.8604539600       -6.6289806033
 H         2.4886194602        3.2252137468       -7.3850016499
 H         4.8023295752        6.4586941234       -9.0910535054
 H         6.3057944541        5.6041113324       -9.1474276594
 H         5.8739960665        6.1299433484       -7.4755143712
 H         3.1434542286        4.3673228902       -9.4413321812
 H         4.6073313617        3.4691631934      -10.1062856493
 H         3.6288339407        2.7180901849       -8.8781625287
 H         3.1379087548        4.0412955452       -4.2757218674
 H         1.6297480272        3.3669211550       -4.9936927919
 H         5.2474928590       -0.9780205457       -5.2857033060
 H         4.9674620413       -1.7205222492       -3.7688226235
 H         6.1106827893        1.7026552742       -3.0839155079
 H         5.7922552595        2.9058871521       -4.2536162532
 H         5.8124736581        1.2662230694       -5.0411484803
 H         2.6204448261        2.5553477495       -2.5673883398
 H         3.5316384124        1.4435576809       -1.6639066565
 H         4.2151159915        2.8908025558       -2.2462619580
 H         2.6999485665       -1.2877905218       -5.9116356920
 H         2.5856782496       -2.6240572699       -4.6231794093
 H         1.0863636767       -6.1371814550       -6.7123333183
 H         2.1792075782       -5.4000718226       -5.5133744699
 H         4.1958957796       -2.6268555667       -8.9474830591
 H         2.6811482748       -1.6816500901       -8.8731984317
 H         2.8367886604       -3.2412871359       -9.6652599645
 H         3.5037550727       -5.2973347343       -8.9859937856
 H         4.9739906060       -4.7803977605       -8.2996453791
 H         3.7912743836       -5.7123145076       -7.3153774276
 H        -0.7486709171       -4.6504165837       -5.8257774769
 H        -0.2306966471       -5.8489386206       -4.7342703624
 H        -2.3567631104       -3.3342681497       -0.8208283893
 H        -1.0837664167       -4.4405550005       -1.0256842672
 H        -2.0875979339       -1.3821630994       -3.6905232788
 H        -2.0450571347       -2.3710080295       -5.0628004265
 H        -0.5773126097       -1.4533522424       -4.7026677128
 H        -1.8022264136       -5.2476673488       -3.1278873187
 H        -2.8770446001       -3.9221763624       -2.6138665053
 H        -2.5065810076       -4.2825334308       -4.3786113918
 H        -1.5151275493       -3.1472342329        1.3738734151
 H        -0.5277923176       -1.8735114047        0.6345968974
 H         1.6158424609       -3.0352565376        4.2125371292
 H         0.0319736801       -2.0797802710        3.9350668319
 H        -0.2956634826       -6.2126627286        0.6084361589
 H        -0.2438083335       -6.6621691383        2.5166812958
 H         0.9638829284       -6.9519870221        1.5032541726
 H         2.8839288466       -5.5628950189        2.0935394485
 H         2.6230075079       -3.9117755633        2.1945485240
 H         2.2367853532       -4.9598691491        3.6110210389
 H        -0.6028295518       -3.8425441714        5.8759293044
 H         1.1317123352       -3.6635595172        6.1986306065
 H        -0.7308756227        1.7465525540        6.7508215298
 H        -0.0752446827        2.2564093450        5.3199513918
 H        -2.6488268234       -1.7893966188        4.9939540771
 H        -3.4486622748       -1.2466626328        6.3596239497
 H        -2.4258788768       -2.7095430311        6.4874516716
 H        -0.4244902242        0.3504519523        8.0571512807
 H        -2.0107134833        0.5618946607        7.6775834318
 H        -1.4949775632       -0.9613526001        8.5202472131
 H        -2.1721973163        2.7202373033        4.3702976851
 H        -2.3260962779        3.3480014363        5.9161080800
 H        -6.2391169347        1.0979286543        7.2278719949
 H        -5.6461117793        2.7965735936        7.3629238494
 H        -5.8827707924        3.0286548676        3.0214630863
 H        -4.0701066398        3.3189193295        3.5735449588
 H        -5.5143748898        4.0622329376        4.4887848352
 H        -6.0187077508       -0.0192270431        4.5850540526
 H        -6.2400409489        1.0777928887        3.0726693194
 H        -4.5039300013        0.5439240135        3.3293066624
 H        -8.5674435440        1.9795768419        7.1735834108
 H        -7.8839445327        1.7319130829        8.5407069632
 H        -8.5463095402        8.1634359532        6.8324356403
 H       -10.0387916330        7.7408409367        7.4042068048
 H        -8.6701771570        8.0045622223        8.5422286750
 H       -11.2366333815        4.6698765735        7.5236931372
 H       -10.2399019752        3.1792884933        7.5107521945
 H        -9.9748000444        4.5828239592        6.3153379954
 H       -10.7063122425        5.8355226377        9.6499816137
 H        -9.8532216280        4.2714745639       10.1685381107
 H        -8.9414467531        5.8333245429       10.2577052754
 Na        2.1532783242       -2.1892558340       -2.0052143373
