155

 C         6.8869658333        2.7323212117       -7.7804637692
 C         5.4409038514        3.0485404558       -8.0369283700
 C         4.8259662454        4.5296106815       -7.7632216772
 C         4.2991282144        4.4244726513       -6.3297950459
 C         3.0788474087        3.5309913141       -5.9080392420
 C         5.8806314987        5.5978219491       -7.8491115349
 C         3.7518708657        4.9467979626       -8.8110833723
 O         4.6643759595        2.2362970496       -8.3430851850
 O         4.3836377400        5.3306979216       -5.5573696782
 C         3.3188401939        2.8340285150       -4.5700419636
 C         3.8595177667        1.3396064318       -4.6650760390
 C         4.0329060947        0.4782402691       -3.3462998151
 C         3.8049283530       -0.9502329710       -3.5858572774
 C         4.4475836438       -1.5848099060       -4.8395303327
 O         4.2017309602        0.9250597439       -5.7781225304
 O         3.0736845911       -1.6421338068       -2.8908008614
 C         5.6068962383        0.6286211995       -2.9667522689
 C         3.0452055196        0.9346356176       -2.3601006939
 C         3.4014428572       -1.8219044682       -5.9461448194
 C         3.6116841334       -3.0960303133       -6.7090549491
 C         2.4640218951       -3.5024879168       -7.7915059004
 C         1.0355780847       -3.5609316401       -7.0218828486
 C         0.8429778609       -4.9123301279       -6.3139206804
 C         2.4128870535       -2.2379955891       -8.7489097378
 C         2.9349839260       -4.7687727045       -8.4784936238
 O         4.6226718593       -3.7945190248       -6.5577431140
 O         0.2591799382       -2.6715381073       -6.9654366206
 C        -0.3277767985       -5.0684632881       -5.4623771100
 C        -0.2422220182       -3.9422301394       -4.2309989063
 C        -1.6526122010       -3.5188755796       -3.6566613638
 C        -1.5254371556       -3.1283555886       -2.1423132305
 C        -1.5167976444       -4.1100731256       -0.8886783915
 O         0.7806742234       -3.4457139739       -3.8769453868
 O        -1.2709023041       -1.8904248576       -1.8857949791
 C        -2.1167399651       -2.2290916850       -4.3695745706
 C        -2.7620778063       -4.7331766005       -3.7002603363
 C        -1.2420153116       -3.2799432724        0.3605249271
 C         0.1612482628       -3.6613805065        0.7440278885
 C         0.5031227219       -4.2190318630        2.1031044315
 C        -0.0319328728       -3.2541826747        3.2439353406
 C         0.7822406349       -1.9136548169        3.4296337438
 C        -0.2318103905       -5.6708419496        1.9896372494
 C         2.0773664326       -4.4928021191        2.1370916658
 O         1.0529584332       -3.3979855412       -0.0478920967
 O        -0.9446188009       -3.5782717687        3.9839977607
 C         1.3673301843       -2.2857793834        4.8436919748
 C         1.1101588947       -1.0077732786        5.8224220186
 C        -0.3066224233       -0.2876024011        5.9137949372
 C        -0.2205941356        0.9911307221        5.1308265457
 C        -0.9777021093        2.3031939090        5.5613110691
 O         2.0445973852       -0.6290610162        6.4750754074
 O         0.3254024421        1.0354715147        4.0769449011
 C        -1.5241170430       -1.0570785549        5.3521245392
 C        -0.4782466413        0.0013439233        7.4282136008
 C        -2.4013981797        2.3703878160        4.8992529420
 C        -3.6596280169        1.6631665987        5.5440281890
 C        -4.9816785221        1.8181243631        4.9007110010
 C        -6.1131332310        1.3562496248        5.9931374825
 C        -6.4444373707        2.2657032204        7.0847827839
 C        -5.1690445282        3.2578293319        4.2278485436
 C        -4.9371026445        0.8888074893        3.6573707283
 O        -3.4893364830        1.2092804195        6.6945262436
 O        -6.7337738732        0.2953508916        5.8896465839
 C        -7.9701579509        2.7482873864        7.2974468279
 C        -7.8319229033        3.6281062229        8.5560745936
 C        -8.0723140886        5.2329575976        8.7326275619
 C        -7.6835515588        5.9902916105        7.3277467487
 C        -8.5046166750        7.3072597603        7.0860943846
 O        -7.3417011045        3.0664123839        9.5031983774
 O        -6.8821590178        5.6977965949        6.4790783967
 C        -9.5820079142        5.4184600663        8.9956545663
 C        -7.1801346227        5.7189811224        9.8914570154
 H         7.2224335285        3.2774127585       -6.8108218686
 H         7.2058400450        1.6541460884       -7.6451611468
 H         7.5698001439        3.1221689571       -8.5002317718
 H         2.3008470287        4.2369261925       -5.6032286644
 H         2.5870098334        2.8363588301       -6.5743627818
 H         5.5498876996        6.6421316922       -8.2688745797
 H         6.7547096131        5.2735873340       -8.3715550377
 H         6.1491852204        5.7811494806       -6.7349769145
 H         3.4936840168        5.9640485689       -8.5166524684
 H         4.1682205243        4.8443072603       -9.8154279945
 H         2.9263248695        4.2113462415       -8.9028283170
 H         3.7924024048        3.4620671323       -3.7570355475
 H         2.4252579937        2.4353060822       -4.0565494088
 H         5.3212380718       -0.9398017352       -5.1793790328
 H         4.8075290505       -2.5899030699       -4.6805070166
 H         5.7176567704        0.1331531709       -1.9345301376
 H         5.7077289873        1.7064859152       -2.9252490503
 H         6.4523567826        0.1111775785       -3.5675421195
 H         2.0278119139        0.4499709847       -2.3330957802
 H         3.5054452793        0.6087263334       -1.5026124675
 H         3.0245408561        1.9544986028       -2.1723492338
 H         3.3064987436       -0.9118684367       -6.6659411599
 H         2.3840611558       -1.7232469692       -5.6181656245
 H         0.8183349827       -5.7892438771       -7.0477133979
 H         1.7455458011       -5.2157242531       -5.8209261823
 H         2.6923793214       -2.3993747671       -9.7910603327
 H         3.0887482937       -1.4596599030       -8.3295625111
 H         1.3456886938       -1.8896735792       -8.7570006038
 H         2.0748820929       -5.4220717308       -8.4807569875
 H         3.3719909272       -4.7094497190       -9.4631055860
 H         3.6506885580       -5.2945187921       -7.8351003436
 H        -1.2620892669       -4.8317168775       -5.8793471962
 H        -0.2947909371       -6.0069531295       -4.9768191128
 H        -2.3947204361       -4.6768639997       -0.8009681635
 H        -0.7055249884       -4.8170221552       -1.0666916191
 H        -2.5464321966       -1.6973449329       -3.5841036617
 H        -2.9023710986       -2.6191259167       -5.0584954532
 H        -1.4199461089       -1.6491852246       -4.9755566625
 H        -2.3896824700       -5.6823582196       -3.2525768645
 H        -3.6481933017       -4.3730053724       -3.1282727584
 H        -3.1850215557       -4.9729422853       -4.6925746762
 H        -1.9158786268       -3.5151747089        1.0843583821
 H        -1.3453805289       -2.1911748218        0.0204251154
 H         1.4009889288       -1.5997366015        2.5800465827
 H         0.1614737531       -1.0223548162        3.5231031229
 H        -1.0948737383       -5.7489006173        1.2158680521
 H        -0.5600946373       -6.1067204838        2.9439891190
 H         0.5967313805       -6.4303787708        1.9062641178
 H         2.5695791634       -3.5265465944        2.2862521330
 H         2.3860577260       -5.2797461801        2.7909668740
 H         2.3510963687       -4.7601598099        1.1536545205
 H         0.8179942583       -3.1671323212        5.2134517867
 H         2.4712086940       -2.4816630121        4.8333763090
 H        -1.1909165598        2.3538221051        6.6223172310
 H        -0.4539395775        3.1690033970        5.1462291458
 H        -2.2516892172       -0.3439470346        4.9680481106
 H        -2.1415050362       -1.6627910559        6.0051767858
 H        -1.3593432987       -1.6465060721        4.4396597570
 H         0.2291367038        0.8574988283        7.7288282649
 H        -1.4614475840        0.1787183825        7.7518485162
 H        -0.0959885945       -0.7814801019        8.0509202167
 H        -2.2893596405        2.0809657581        3.8573716257
 H        -2.6925743598        3.5466724415        4.6928535784
 H        -6.0332849481        2.0463610667        8.0753151737
 H        -5.9893651280        3.2513777758        6.9063208885
 H        -4.1226603743        3.6437075585        3.9158958259
 H        -5.5616060891        4.2016879581        4.6362500109
 H        -5.8297509696        3.2074100907        3.3632007700
 H        -4.1344705402       -0.0084203138        3.6308093683
 H        -6.0508725718        0.8391874102        3.4199845227
 H        -4.5176953428        1.4891413760        2.8770514973
 H        -8.1918387927        3.2649486065        6.3992055659
 H        -8.5630449775        1.9055396792        7.5748982962
 H        -9.3338818881        7.5530289231        7.6415684635
 H        -7.8362398904        8.1962827363        7.1254458369
 H        -8.8767756355        7.2749992901        6.0351805763
 H        -9.9189532641        6.3057550592        9.4763312183
 H        -9.9899641063        4.5457882091        9.6561800548
 H       -10.0883062772        5.1395812401        8.0715638613
 H        -7.0393498466        6.8672865505        9.9700973879
 H        -7.6245201819        5.3658521962       10.9096121198
 H        -6.1728162436        5.3936445819        9.8256244925
 Na        1.3517142156       -1.9985223535       -1.9341522812
