155

 C         5.9912637642        2.2938765211       -8.2001502745
 C         4.7376955980        3.2710501301       -8.2529808559
 C         4.6026009151        4.5088264405       -7.2228960866
 C         4.2513168200        3.8463739564       -5.8077857256
 C         2.8679418337        3.1577482163       -5.6610487008
 C         5.9302090535        5.2677201127       -7.0171955089
 C         3.4865352722        5.4771475110       -7.6429549311
 O         3.8682452960        3.1980709134       -9.1434660498
 O         5.1497670707        3.7117311357       -4.9557261497
 C         2.8254152632        2.0816837988       -4.6304966007
 C         4.2091163754        1.2613468804       -4.4700911327
 C         4.3338669506        0.2488718401       -3.1158384540
 C         3.9240168421       -1.0761479667       -3.8052465121
 C         4.4704119697       -1.5568049705       -5.0864514491
 O         5.0051472217        1.0532588818       -5.3359063898
 O         2.9964590719       -1.6410256267       -3.2114709460
 C         5.8155049399        0.1174054657       -2.8410093417
 C         3.5295197929        0.6532724750       -1.8810075407
 C         3.3305992601       -1.4811031230       -6.1845160942
 C         3.0573002757       -2.9860197319       -6.6541882471
 C         2.0298552650       -3.2305267806       -7.7627565684
 C         0.5759674312       -3.3315197987       -7.1094733993
 C         0.2815848974       -4.8675399267       -6.6268890380
 C         1.9271982783       -2.0521564906       -8.7751023373
 C         2.5522015942       -4.5508509764       -8.3988118716
 O         3.5388655531       -3.9221007929       -6.0139374609
 O        -0.2166808344       -2.3809008839       -6.9696422986
 C        -0.8206314877       -5.2319993637       -5.6163537654
 C        -0.7948996195       -4.2852137018       -4.3657760009
 C        -2.2393952668       -3.8354144328       -3.7939506600
 C        -1.9066449953       -3.3305815915       -2.3263040548
 C        -2.0242475046       -4.2523534181       -1.1998572881
 O         0.1908742656       -4.0506793557       -3.7896899903
 O        -1.6728441060       -2.1021643793       -2.1934815524
 C        -2.8105614190       -2.7147656238       -4.7146400561
 C        -3.2727888332       -4.9349530554       -3.8613485585
 C        -1.4361295212       -3.7684987254        0.1206239001
 C         0.0786957852       -3.7560010278        0.3968278164
 C         0.5593536890       -3.8886097771        1.9080383050
 C        -0.0670141015       -2.8091985895        2.9468509573
 C         1.0066794067       -1.7597178614        3.2817231669
 C        -0.0721751855       -5.2786271264        2.3922943730
 C         2.0467051328       -3.9839674129        1.7797203528
 O         0.8236721177       -3.7818323678       -0.5697470944
 O        -1.0904457086       -2.9164481500        3.6064075194
 C         1.5375205777       -1.9674325886        4.7486512720
 C         1.6819902784       -0.6239783487        5.2951851704
 C         0.4357841033        0.1465676020        5.9881898143
 C        -0.2913657659        1.1356677000        4.8830469451
 C        -0.5953806344        2.6020522593        5.1636006450
 O         2.7376984926        0.0433539149        5.1623656408
 O        -0.7890516068        0.6805099717        3.8809602828
 C        -0.7394427017       -0.6510091531        6.6344643549
 C         0.9799283935        1.0177888216        7.1803791577
 C        -2.0300432288        2.8257072233        4.7173484781
 C        -3.1328041900        1.9905044858        5.5390165698
 C        -4.6381379101        1.9673044997        5.0805881476
 C        -5.6527416699        1.5344278370        6.3700383034
 C        -5.9643987371        2.6910952668        7.2510172366
 C        -5.0903503842        3.1760531992        4.4599902590
 C        -4.8577025524        0.8204459980        4.0170890528
 O        -2.8515555561        1.3947744052        6.5576977660
 O        -6.1216099199        0.4762806514        6.5041462991
 C        -7.2304305709        2.4366046863        8.2081426178
 C        -7.8752924289        3.5683140070        8.9267519891
 C        -7.1753322819        5.0734158178        8.8901966856
 C        -7.3045860789        5.6744382799        7.2964196280
 C        -8.2998118832        6.8020633560        6.9316334732
 O        -8.9695262880        3.3763821015        9.3597083383
 O        -6.5908694273        5.3351624129        6.4152167370
 C        -7.9020948404        5.8863235722        9.9968707807
 C        -5.6618801564        5.1214107349        9.2394112929
 H         5.8947293630        1.6936698557       -7.3597822870
 H         6.0365252518        1.8198595573       -9.1050454758
 H         7.0007411318        2.7188235676       -8.1590751135
 H         2.1843472501        3.9268408921       -5.2761996513
 H         2.5226145765        2.7444198833       -6.6592066479
 H         5.6149317636        6.1529595910       -6.5713436602
 H         6.6192774394        5.3792611642       -7.9276284483
 H         6.3815623092        4.7069301107       -6.2556992109
 H         3.5186990992        6.2998219049       -7.0024096360
 H         3.5821045003        5.8571237563       -8.6151085154
 H         2.5396719108        5.0368485745       -7.4224653681
 H         2.5912844476        2.4434087234       -3.5660029675
 H         2.0262535328        1.3271118539       -4.9558776006
 H         5.3847342767       -1.0006903378       -5.3387454728
 H         4.6969427423       -2.5851519280       -5.0153535828
 H         5.8576673072       -0.6970958913       -2.2117347248
 H         6.1879339661        0.8923429981       -2.0771157629
 H         6.5579819611        0.0496494034       -3.5999885833
 H         4.0576634511        1.4063321992       -1.3764972019
 H         2.4479921033        0.9217945398       -2.0821374792
 H         3.6483263106       -0.1995679189       -1.1013490359
 H         3.6639785837       -0.9241244356       -7.1201753278
 H         2.4894562143       -0.8901696696       -5.7393611637
 H         0.1671365447       -5.6371093102       -7.4011328978
 H         1.2840090435       -5.0224947767       -6.1760779818
 H         1.4589646954       -1.3185758670       -8.2451852124
 H         1.2387727474       -2.3594458745       -9.5655047918
 H         2.9132207342       -1.8278721640       -9.2305059143
 H         1.7631988682       -5.1998663790       -8.6706138528
 H         3.2281467145       -4.4723405113       -9.2483583411
 H         3.0514386751       -5.0274838807       -7.4749703791
 H        -1.8061696306       -4.9776508731       -5.9277488400
 H        -0.6686699635       -6.2077337873       -5.3055925556
 H        -3.0710903250       -4.5432901198       -1.0470138710
 H        -1.4394454676       -5.2026416651       -1.4924574407
 H        -3.9408957984       -2.7686434037       -4.6045284205
 H        -2.6751347089       -2.8213655212       -5.7319957776
 H        -2.3486416794       -1.8235918187       -4.3218893933
 H        -3.0868193040       -5.8017721006       -3.2519438851
 H        -4.1357068378       -4.5011111771       -3.4519640360
 H        -3.6014945442       -5.2198896578       -4.8941520805
 H        -2.0016550921       -4.2901836922        1.0208641183
 H        -1.7735967601       -2.7697610306        0.1022580298
 H         1.7887407039       -1.7001389722        2.4544054295
 H         0.4138469690       -0.8158540155        3.0868361826
 H        -0.6519181286       -5.5615678884        1.5661673953
 H        -0.7758871297       -5.2854321333        3.2372521458
 H         0.8010826370       -5.8640800301        2.6163162305
 H         2.5035216662       -2.9634497536        1.6816878328
 H         2.4644244724       -4.4312703255        2.6552696387
 H         2.2771228698       -4.5159629309        0.8339138997
 H         0.9763775322       -2.5966793825        5.4567659850
 H         2.5708629955       -2.3580225721        4.8697282809
 H        -0.4637078800        2.8905565632        6.1659723144
 H         0.0012078832        3.2579824562        4.5608155796
 H        -0.4304823801       -1.7552467104        6.7273488766
 H        -1.5827187547       -0.4812663488        5.8779770881
 H        -1.0699355871       -0.1410873531        7.6459696544
 H         1.6748749749        1.7256479954        6.9266419855
 H         0.1954797338        1.6229839104        7.6643780552
 H         1.3612367423        0.4015999518        8.0438049538
 H        -2.0764586287        2.8104977755        3.5150248117
 H        -2.2416393874        3.8672500426        5.0085639334
 H        -5.0007827208        2.9023023958        7.6860133464
 H        -6.2617483856        3.4924377311        6.6093537834
 H        -4.6752527848        3.3855047020        3.5396327807
 H        -5.2184852881        4.1503860735        5.0221459579
 H        -6.0866356192        3.0767284408        3.9601524787
 H        -4.5731570334       -0.1461377047        4.3326631879
 H        -5.9163422593        0.6276628316        3.7338026296
 H        -4.3076340865        1.2860807993        3.0694202031
 H        -7.9816293526        2.0861009405        7.4788061352
 H        -7.0800217418        1.4774038460        8.7738577958
 H        -8.8231201815        6.6596999089        5.9440294210
 H        -9.1560928089        6.9002044469        7.6101313362
 H        -7.7666497835        7.6930630151        6.8280851674
 H        -8.0211661874        6.9646237923        9.7904121483
 H        -7.4377611659        5.7343827340       10.9310066160
 H        -8.9543674160        5.5507591330       10.1570121120
 H        -5.2913499954        5.0350419293       10.2236114081
 H        -5.1813442075        4.3668257791        8.7699505160
 H        -5.1229689660        5.9607819591        8.8132157184
 Na        0.7861342074       -2.1691935921       -2.3935113956
