155

 C         5.3917752150        2.5690107290       -8.2762585197
 C         4.3736069360        3.8036778951       -8.1577483450
 C         4.5246644664        4.7500365346       -6.9222817896
 C         4.3000638804        3.9481487808       -5.6072114270
 C         3.0962679449        2.9326805672       -5.2864656110
 C         6.0125140546        5.2776143611       -7.0409615787
 C         3.5567513784        5.9148604069       -7.1098550429
 O         3.4444992617        3.9307917326       -8.9667418886
 O         5.1565211708        4.0517435753       -4.7359499057
 C         3.1843648172        2.0190439727       -4.0999678827
 C         4.2142346946        0.8462133001       -4.4445070833
 C         4.3888139049       -0.2360293430       -3.1655287199
 C         3.5240796946       -1.3357137701       -3.6818352479
 C         4.2380601224       -2.4208971318       -4.6358336514
 O         4.9095494633        0.6840291727       -5.4098690546
 O         2.3102263365       -1.2393077300       -3.5153029093
 C         5.8681077502       -0.5193064304       -2.8746004433
 C         3.7137447322        0.3829183276       -1.9069947423
 C         3.7477711715       -2.2843100052       -6.0886426240
 C         2.5522321272       -3.3185256731       -6.3212880307
 C         1.5867073360       -3.2326069971       -7.6707400540
 C         0.0494898191       -3.6117802243       -7.1910284704
 C        -0.3253871778       -5.1397839101       -6.9739782000
 C         1.5975099637       -1.8323166323       -8.2980092061
 C         2.2276909174       -4.1504632015       -8.7657458467
 O         2.4694597759       -4.4040690540       -5.6705360951
 O        -0.7458311297       -2.7333754970       -6.9978138565
 C        -1.4493964650       -5.2248651836       -5.9208283643
 C        -1.1598467117       -4.3490018475       -4.5990117282
 C        -2.4424144026       -3.7818784309       -3.8462075822
 C        -1.9033214949       -3.3169918129       -2.4668666190
 C        -1.8424300143       -4.3530429996       -1.3754972010
 O        -0.1094604492       -4.3673077865       -3.9616839260
 O        -1.3793030702       -2.2657243949       -2.2932662657
 C        -3.1266604895       -2.6662346745       -4.5875955150
 C        -3.3399796466       -5.0771064890       -3.6413142653
 C        -1.5130841343       -3.7729128326        0.0741536900
 C         0.0177533650       -3.7251684723        0.2479860941
 C         0.6878248971       -4.2418548145        1.5327125936
 C         0.2840941744       -3.0809020538        2.5981558904
 C         1.1303253843       -1.8822862256        2.9454871494
 C        -0.0900696164       -5.5299199712        1.8326104867
 C         2.2026461170       -4.6416009819        1.6660647660
 O         0.6973565331       -3.3376018813       -0.6893106005
 O        -0.8908450228       -3.1457677112        3.0048157685
 C         1.0274847405       -1.4840616257        4.3925450446
 C         1.4829907004       -0.0762751698        4.6611747988
 C         0.9787910291        0.6728082131        5.8834191518
 C        -0.3588783092        1.3798071503        5.4051636205
 C        -0.7857675074        2.8711982919        5.6324063287
 O         2.2063848385        0.5116595036        3.8765558665
 O        -1.0085261761        0.6959550286        4.6774595428
 C         0.6472266021       -0.3796172581        7.0018357845
 C         2.1144516134        1.7188879556        6.2672268842
 C        -2.1674156547        3.1685271848        5.0674423641
 C        -3.3390565619        2.4386849253        5.9145062142
 C        -4.6434764817        1.8119254190        5.0722728727
 C        -5.6492672980        1.4518625886        6.2303501480
 C        -6.3678992472        2.6079609523        6.8338672933
 C        -5.0548565116        2.9083736767        3.9816824618
 C        -4.2226848890        0.4751378605        4.4501185219
 O        -3.2251101462        2.3812909715        7.1121277395
 O        -5.8448222296        0.3610610198        6.6067669801
 C        -6.3714778537        2.4754036160        8.3335791291
 C        -7.2345180968        3.6778223715        8.8612759926
 C        -6.4695658803        5.1241018370        9.0648646190
 C        -6.9419689879        5.9909962132        7.7942093334
 C        -8.4156336576        6.1144376086        7.4821150710
 O        -8.4010801095        3.5761976462        8.9711798846
 O        -6.1997564597        6.4531267002        6.9863091589
 C        -7.1249526084        5.7951763885       10.3226362923
 C        -4.9406896643        5.1922376014        8.9766872534
 H         5.4083730328        2.0662821268       -9.2198897809
 H         6.4035214442        2.8157692178       -8.0698346679
 H         5.0153752546        1.8433899326       -7.5578679658
 H         2.1963687338        3.5999840058       -5.0950539204
 H         2.8553443630        2.3157908636       -6.1365470685
 H         6.0103023534        6.1423816177       -6.3030559153
 H         6.2489474697        5.6691500008       -8.1067048177
 H         6.6910570249        4.4738261422       -6.7285979386
 H         2.8529930830        5.8136212264       -6.4075809762
 H         4.0445545295        6.7957117843       -6.8212582878
 H         3.0507321064        6.0612596730       -8.0471595076
 H         3.5670977850        2.5438577903       -3.1725757731
 H         2.1155777147        1.6637837263       -4.1427382299
 H         5.3217458933       -2.4126847390       -4.7336493551
 H         3.9549305822       -3.3856612533       -4.1983057455
 H         6.0059728731       -1.4131258679       -2.2135687111
 H         6.4965036763        0.2920784471       -2.4627731607
 H         6.4529619170       -0.7167712949       -3.8791265194
 H         2.6019439270        0.2579524919       -1.8757361855
 H         4.1742971715       -0.1035678204       -1.0786137935
 H         3.9648009272        1.4236217639       -1.7628528443
 H         4.3766531044       -2.8777860663       -6.8080267761
 H         3.3910688466       -1.3134508066       -6.2766148337
 H        -0.6582279102       -5.5790783518       -7.9672385938
 H         0.5077219078       -5.6817358049       -6.5731422355
 H         2.4481996720       -1.6849522172       -8.9558780262
 H         1.4424759516       -1.0665696528       -7.5509129411
 H         0.7510387311       -1.8978523389       -9.0264974371
 H         1.3542907212       -4.3000015663       -9.3586828360
 H         2.9816959547       -3.5904332424       -9.2768696436
 H         2.5533056279       -5.1472564122       -8.5297094725
 H        -2.4460423394       -4.9274081557       -6.2361207194
 H        -1.5423588274       -6.2582764878       -5.4454070417
 H        -2.8669965478       -4.7898221440       -1.2814847554
 H        -1.1884754405       -5.1791953001       -1.5400277144
 H        -3.7583828723       -2.1839483229       -3.8841544243
 H        -3.8012421464       -3.0940232481       -5.3552133185
 H        -2.5122641368       -1.8853361758       -5.0165387351
 H        -2.7047289592       -5.9260796295       -3.3347694639
 H        -4.1395775575       -4.9606753410       -2.8709010686
 H        -3.8319780423       -5.3923157120       -4.5381367797
 H        -2.0270396604       -4.4032866831        0.7545925600
 H        -1.9786723162       -2.7875496006        0.3331748823
 H         2.2047843844       -2.0105417802        2.5878617366
 H         0.8781660315       -0.9772746863        2.3223396155
 H        -1.0809576842       -5.1621389108        2.3003276116
 H         0.4911093733       -6.1428635997        2.4975855763
 H        -0.4031619245       -5.9543860983        0.8020724130
 H         2.7988685610       -4.1152605381        0.9036854722
 H         2.6251937093       -4.4791587349        2.7001709397
 H         2.3251967256       -5.6723091032        1.3436992179
 H         0.0290220377       -1.5094304628        4.8723547866
 H         1.6048058906       -2.2360218897        5.0292736797
 H        -0.9492268095        2.9218142423        6.7028722832
 H         0.0813996806        3.5331874231        5.4968403722
 H         1.3300426286       -1.2049677385        6.8113806814
 H        -0.3371325701       -0.8169857458        6.8346343753
 H         0.4313316761        0.2621120515        7.8767361826
 H         2.4144358797        2.3922243598        5.4283753304
 H         2.0006562056        2.2604946098        7.1628478240
 H         3.0128087638        1.1622692780        6.4454945239
 H        -2.2432376815        2.8160476253        4.0954412832
 H        -2.2927339549        4.2815217914        5.0036864235
 H        -5.9662475543        3.5869881216        6.5183107970
 H        -7.4408992087        2.6064187566        6.5057470189
 H        -4.2730404505        3.3802537366        3.5595450460
 H        -5.6038000231        3.8757528345        4.3880101565
 H        -5.7761357827        2.6174355890        3.2301385531
 H        -4.0850099991       -0.2881132717        5.1974367055
 H        -5.2263251844        0.1745791911        3.8738995523
 H        -3.4638876152        0.4316345793        3.5485305959
 H        -6.7410457914        1.5832627320        8.8098674322
 H        -5.3873381873        2.5646118202        8.7148545740
 H        -8.6817646189        5.3900656874        6.8055385006
 H        -9.0235662885        6.0985612005        8.4048636088
 H        -8.6316545663        7.0765136365        7.0243631775
 H        -7.0881569964        6.9138011167       10.4006313801
 H        -6.5997471191        5.4013356639       11.0751318078
 H        -8.2293673940        5.4400253449       10.3717377877
 H        -4.4602337639        4.4157221803        9.5645931429
 H        -4.5109550119        5.3017567673        7.9853741964
 H        -4.4921169542        5.9591086156        9.5847768697
 Na        0.9814962757       -2.7495176069       -2.7461423211
