155

 C         3.7001902464        6.1544241609       -7.9740965801
 C         3.6575665331        4.8127844144       -7.3377994070
 C         4.1852279614        4.5328677129       -5.8610809733
 C         4.2931275929        2.8588791871       -5.6601767459
 C         3.1692096376        2.1282590905       -4.8968090592
 C         5.5630723381        5.1719138246       -5.4878888785
 C         2.9847213351        5.0523638638       -4.8807381609
 O         2.8257771933        4.0087111386       -7.8603723208
 O         5.2013303632        2.0910120739       -6.0375806463
 C         3.5242601088        1.3540579048       -3.5331108815
 C         3.1787039657       -0.1042010957       -3.6628327901
 C         4.3199204437       -1.3030439459       -3.6484112807
 C         3.6210995236       -2.5237599617       -4.1491913953
 C         3.7060899108       -3.0960195256       -5.5948275191
 O         2.0594601459       -0.5247974518       -3.8211213974
 O         2.9923282724       -3.2012246217       -3.4223189039
 C         5.4554229117       -0.6680325604       -4.4781130036
 C         4.8911532901       -1.4902108610       -2.1591385547
 C         2.6126401495       -2.4710579651       -6.5283239166
 C         1.4437668825       -3.4454505346       -6.6086621975
 C         0.4623292721       -3.0833117325       -7.8204496129
 C        -1.0065108762       -3.3949601747       -7.3779310946
 C        -1.3377112331       -4.8295397597       -6.9072551961
 C         0.5174117934       -1.6464892856       -8.2467125084
 C         1.1062294406       -4.0516023330       -8.8954564531
 O         1.1575500798       -4.3252408151       -5.7998621826
 O        -1.8010162471       -2.4597025151       -7.4604430716
 C        -2.6239099010       -5.0489039734       -5.9577740255
 C        -2.3139674350       -4.5890302711       -4.5499583848
 C        -3.2045043495       -3.6593443045       -3.5506872411
 C        -2.3531504633       -3.4229443260       -2.1816243300
 C        -2.4837772514       -4.5224259405       -1.0107734874
 O        -1.0982771544       -4.5697152628       -4.1152707180
 O        -1.5260432941       -2.5820652955       -2.0725196843
 C        -3.4491018879       -2.2976816245       -4.2122179363
 C        -4.7158889362       -4.4100817564       -3.2746658413
 C        -1.9498041364       -4.0724621513        0.3365513065
 C        -0.5005286267       -4.3232399976        0.6187835398
 C         0.1767878979       -4.4725397126        1.9335484056
 C         0.7795023379       -2.9084781621        2.3815898494
 C         1.1276523020       -2.0833932276        1.1346496070
 C        -0.7060498107       -4.9756545394        3.0819984060
 C         1.5170328816       -5.2094901536        1.7509276445
 O         0.2909985348       -4.5318634086       -0.3509569485
 O         0.6862132749       -2.5174195784        3.4682979876
 C         0.6538654331       -0.5300569359        1.4876526758
 C         1.6729270908        0.5761343688        1.7160495110
 C         1.2297461863        1.8241176954        2.5813394516
 C         1.0838456208        1.3378738271        4.0884016261
 C         0.3524484843        2.0474261997        5.2275334285
 O         2.7783970541        0.3514860305        1.2768267702
 O         1.6434938792        0.3142437429        4.3606230081
 C         2.2898118980        2.8330092878        2.4681735014
 C        -0.0413201431        2.4381200060        1.9165168541
 C        -1.1238437657        1.4667792063        5.2906151393
 C        -2.0386013939        1.9712352208        6.4282537712
 C        -3.4573318749        2.2104073227        5.8645100445
 C        -4.3590480746        1.9400244113        7.0293390315
 C        -5.0070728033        3.1741254393        7.5806251592
 C        -3.4120582212        3.6314930928        5.2240332063
 C        -3.9021427546        1.1323238091        4.8749498802
 O        -1.6972952372        2.2969353437        7.5340068440
 O        -4.7060797530        0.7620227397        7.2717573807
 C        -5.1376272190        3.2342917255        9.0730074837
 C        -6.1941359583        4.2622798543        9.3917008287
 C        -5.7244493199        5.5639375609       10.1723185817
 C        -5.7310147845        6.9515531443        9.3364382484
 C        -7.0590331819        7.2878550841        8.5849529542
 O        -7.3489665594        4.1265519863        9.0319054179
 O        -4.7544886753        7.6875608540        9.4435455192
 C        -6.7755783087        5.5785092931       11.3737023897
 C        -4.1461840918        5.4464602086       10.6528067310
 H         2.6563818144        6.4069534749       -8.1675575278
 H         4.1734508921        7.0410314751       -7.6163824453
 H         4.0458946546        5.9334199668       -9.0045007217
 H         2.4970209028        2.9806293625       -4.6188892450
 H         2.6965385331        1.4110490237       -5.6457243747
 H         6.0175168267        5.0180386853       -4.4986637327
 H         5.5353631480        6.3046984656       -5.7838158842
 H         6.3316696314        4.8768899993       -6.1497268849
 H         2.8258466982        4.5338164928       -4.0170854076
 H         3.1987923860        6.0187872681       -4.7062449804
 H         2.1298134105        5.0450341465       -5.4373637621
 H         4.5668623370        1.7201980764       -3.2765471481
 H         2.8916263794        1.6873031046       -2.6802226487
 H         4.7280980819       -2.8638761283       -5.9799182539
 H         3.6202844216       -4.1372561688       -5.4753538325
 H         6.3738729450       -1.1325663027       -4.2775497215
 H         5.6008918878        0.4122616237       -4.2786494032
 H         5.2382670319       -0.6961876832       -5.5425867127
 H         4.1626319159       -2.0639522657       -1.5863769242
 H         5.8379420002       -2.0161019904       -2.0435219759
 H         4.9436820720       -0.3909324514       -1.7633190401
 H         2.9731037898       -1.9604497514       -7.3564552667
 H         2.0711139899       -1.5949069113       -6.0379992959
 H        -1.3864783348       -5.3916137586       -7.8618518027
 H        -0.4487694453       -5.2713621339       -6.4911587304
 H         1.2550211805       -1.2896947115       -9.0070678755
 H         0.5761742456       -0.9725847218       -7.3947423637
 H        -0.3967692009       -1.3434808400       -8.6468812307
 H         0.5413133063       -4.0467750350       -9.8749841122
 H         2.0639560527       -3.6140330635       -9.2714891455
 H         1.3429757688       -5.0638885795       -8.6178459267
 H        -3.4479117046       -4.2941987036       -6.1500918650
 H        -2.8018756812       -6.1076039702       -5.7170819303
 H        -3.5832237944       -4.6422336346       -0.8510742276
 H        -1.9883554323       -5.4719242598       -1.2993681887
 H        -2.7406105387       -1.9445521986       -4.9267025184
 H        -3.5778665490       -1.5404859737       -3.3632614751
 H        -4.4162650471       -2.3294161283       -4.6926847325
 H        -4.5850717991       -5.3603015507       -2.7251509186
 H        -5.4321589444       -3.6706535082       -2.7799725935
 H        -5.2648816119       -4.6237011922       -4.1666129365
 H        -2.4608221774       -4.6593778510        0.9812908924
 H        -2.1161533518       -2.9322775619        0.5708092033
 H         2.2425889776       -1.9203661071        0.9898635073
 H         0.6804554014       -2.3873730856        0.1737100943
 H        -1.7222767338       -5.0831904595        2.8139424684
 H        -0.7242676996       -4.4299221582        3.9770256552
 H        -0.4131897709       -5.9588975470        3.2918560468
 H         1.8150293782       -5.1411404760        0.7708676629
 H         2.3161331197       -4.8677163155        2.4277306643
 H         1.3188593479       -6.2595327497        2.0483123785
 H        -0.0247784972       -0.2966142951        0.5593669286
 H        -0.1145115265       -0.5918664391        2.3292920542
 H         0.9521430885        1.8126276519        6.2585049467
 H         0.2022452639        3.1364558164        5.1929741495
 H         3.2269825147        2.4033506361        2.0056607912
 H         2.5639395276        3.4221565351        3.4244082781
 H         2.1890830080        3.7287868336        1.7620797155
 H        -0.9635287198        1.7871117296        2.2760957628
 H        -0.2923950957        3.4200618500        2.2924004642
 H         0.1065416060        2.3619496694        0.8612542997
 H        -1.0142305389        0.3914963451        5.1890121338
 H        -1.5234492155        1.6968749793        4.2102053215
 H        -4.6163617795        4.1080719015        7.1874691556
 H        -6.0308242958        3.3092233860        7.2038738951
 H        -2.9917279787        3.3878498997        4.2321521278
 H        -2.9910501467        4.3199577555        5.8530240975
 H        -4.6207221843        3.7698579550        4.9795220404
 H        -3.4607920279        0.1451355123        5.0660718538
 H        -4.9236648086        1.1086317781        4.8437554542
 H        -3.3709598541        1.3334050680        3.9444749097
 H        -5.3503113133        2.2371192842        9.4115125759
 H        -4.2292210989        3.5876735525        9.5418461532
 H        -7.1120245800        6.5787159710        7.7925736267
 H        -8.0070011287        7.0523812693        9.1066208455
 H        -7.0896503331        8.3080260732        8.0867965085
 H        -6.7514173771        6.4998969959       11.8051341966
 H        -6.6024476735        4.9174686624       12.2418991906
 H        -7.8023206611        5.2371294859       11.1383942047
 H        -3.8407340586        4.4548889092       10.8791497126
 H        -3.6365064031        5.6987452494        9.7519589865
 H        -3.9087070137        6.0690541676       11.4429301451
 Na        0.6939658384       -3.8559875435       -2.8893427231
