155

 C        -0.8030928756       -9.1803478309        5.5203073702
 C        -0.1122151132       -7.7979912008        5.1604833473
 C         0.6161680920       -6.9510615546        6.2361704040
 C         0.9273616709       -5.5290832544        5.7856380608
 C        -0.0448578633       -4.6594033556        4.9926834207
 C        -0.1560972085       -6.8390135144        7.6175256099
 C         2.0096561177       -7.6814705945        6.6240023917
 O        -0.3683797368       -7.2963391655        4.0661760518
 O         1.9394031482       -4.9822234745        6.0914588730
 C        -0.3014116886       -3.2241245154        5.5096357943
 C        -1.1814683909       -2.4600194632        4.4017486250
 C        -1.6375322237       -1.0335400005        4.9353962656
 C        -2.1036455495        0.0225144590        3.8327050204
 C        -1.0905138870        0.5143590958        2.7518390181
 O        -1.3971228038       -2.8391373551        3.2946151786
 O        -3.2662827494        0.2491379460        3.5442227341
 C        -2.8947174847       -1.3192528808        5.8452838344
 C        -0.3804470440       -0.3428817298        5.7806579633
 C        -1.6927215590        1.5826586727        1.8695674832
 C        -0.6505696631        2.1350819078        0.8950669398
 C        -0.9629630505        3.3443651886       -0.1659047586
 C         0.3061613428        4.1100594429       -0.1855217040
 C         0.5087188925        5.4753187148        0.4178959544
 C        -1.3018176045        2.7133207687       -1.5749342148
 C        -2.2219261446        4.0987826843        0.3111428956
 O         0.3731457502        1.5556564334        0.8411926462
 O         1.2758515434        3.6161166622       -0.7849975976
 C         1.5331965110        5.5454212698        1.6068605381
 C         1.3999753720        4.4683680101        2.6618764045
 C         2.7682910655        4.3337434946        3.6007454796
 C         3.9656969042        3.7044312873        2.7095750237
 C         4.6925841680        2.5689820665        3.3265601861
 O         0.6312618659        3.5431039646        2.7621405236
 O         4.3055024586        4.2005915500        1.6741798126
 C         3.2912753621        5.7416070939        4.0341570075
 C         2.4854160906        3.4224280996        4.7834956264
 C         5.5563731635        1.8794960068        2.3021021650
 C         4.6221814319        1.2344315134        1.1617902805
 C         5.2729731060       -0.1216047932        0.5996811843
 C         4.6594820037       -0.2813276440       -0.8713268055
 C         5.5209948535        0.3536332061       -1.9424980936
 C         6.7852486659       -0.0613932232        0.7635984460
 C         4.6459586361       -1.2680062324        1.4011334174
 O         3.5179712566        1.6692742235        0.8567411593
 O         3.6390910773       -0.8952134215       -1.0502627936
 C         4.8570754141        0.2465548521       -3.2830259402
 C         3.5722249465        1.0842286977       -3.3887605428
 C         2.4100392860        0.7566478052       -4.5507212160
 C         1.2101469319        0.0373703766       -3.8528404227
 C         0.0039891832       -0.4305238489       -4.6835551942
 O         3.4070726284        1.9587048350       -2.5996787287
 O         1.1769931726       -0.0750776530       -2.6410683225
 C         1.8711840295        2.1206606920       -5.0700174497
 C         3.0123168698       -0.1760137171       -5.5638117391
 C        -1.1939419696       -0.7913026920       -3.8397742743
 C        -2.0070809069       -1.9453499792       -4.5125899546
 C        -3.3808577632       -2.3531847045       -3.9642248734
 C        -4.4687041200       -1.1397189586       -4.1148422471
 C        -5.0122551138       -0.9058802354       -5.5089144420
 C        -3.9117849979       -3.6755338923       -4.5605336649
 C        -3.2298888713       -2.6794811635       -2.3931336604
 O        -1.4038720579       -2.5768698521       -5.3280071671
 O        -4.9884708274       -0.6158382647       -3.1693658711
 C        -6.4403048943       -0.3781170704       -5.4332843315
 C        -6.5565422184        1.0835243262       -5.8346121122
 C        -8.0005492696        1.7077187994       -5.9517231782
 C        -8.3461782818        1.2027120656       -7.4313078295
 C        -8.1517137491        2.2446919588       -8.5626008093
 O        -5.6137585165        1.8197564144       -6.0182132504
 O        -8.7074676678        0.0651013958       -7.5834623302
 C        -9.0438353511        1.0911634878       -4.9332834870
 C        -7.8807905666        3.1907475871       -5.8113046742
 H        -0.1369161965       -9.7165384492        6.1025482756
 H        -1.6042808181       -9.0136145523        6.2537383390
 H        -0.8734695530       -9.6743445402        4.5945429233
 H         0.4078132056       -4.6111725149        3.9953286463
 H        -1.0586539206       -5.0286403509        4.8298536279
 H        -1.1094539163       -6.3295562331        7.4430998050
 H         0.5232033372       -6.3463231627        8.3327727539
 H        -0.5356808622       -7.7820066935        8.0187116349
 H         2.4668228614       -8.2194474011        5.8400818886
 H         2.7736195391       -6.9149917707        7.0265863619
 H         1.8230108197       -8.4800514856        7.4501185321
 H        -0.7399123194       -3.1189957985        6.4691259660
 H         0.5970847067       -2.5656146904        5.4173667641
 H        -0.1937304174        0.8909111993        3.2477778213
 H        -0.8288950334       -0.3448491378        2.1849273124
 H        -3.2674916391       -0.3666090362        6.2309655212
 H        -2.5302683355       -1.8204920253        6.6878954939
 H        -3.6379777507       -1.8554964482        5.2004216756
 H        -0.4042159381       -0.8638293709        6.7691630981
 H         0.5566273526       -0.4678322131        5.2297182148
 H        -0.5614649090        0.7455969273        5.7646177631
 H        -2.1867101596        2.3785429674        2.4181479330
 H        -2.4688540964        1.0105270012        1.2069661043
 H         0.7286681354        6.2054221568       -0.3948248717
 H        -0.3796620973        5.9002512773        0.8763101955
 H        -0.5237535518        2.0032656516       -2.0674391144
 H        -1.5186783011        3.5099610075       -2.2512261323
 H        -2.2564916519        2.1837852088       -1.3640934214
 H        -3.1403479189        3.5483011255        0.1955933566
 H        -2.2577295107        4.4372569774        1.3214035702
 H        -2.5327294172        4.9890002611       -0.2895306563
 H         2.5613604059        5.4707459102        1.2461990263
 H         1.4624733930        6.5829039624        1.9960675926
 H         5.2406870638        2.9580848454        4.1641934205
 H         4.1071401298        1.7952547040        3.8849552289
 H         3.2898063294        6.3555897264        3.1999743155
 H         4.3174274526        5.5893266748        4.3745917460
 H         2.6817720872        6.1996424960        4.8053138013
 H         1.7230648603        3.9256608950        5.3797346722
 H         2.2049850881        2.4015996717        4.5639077029
 H         3.3533168277        3.3293754618        5.4107376435
 H         6.2447055692        1.1383341547        2.6690538429
 H         6.2252067269        2.5876696917        1.7931482930
 H         5.7538618671        1.4515070835       -1.7540555203
 H         6.5136345550       -0.1870196938       -1.9601081299
 H         7.0327790717        0.9854745859        0.4159701089
 H         7.3516282245       -0.7858978947        0.1721685520
 H         7.0431669576       -0.2228338671        1.8498227463
 H         5.0621625285       -2.2355314109        1.0258400118
 H         4.8940057068       -1.2652020004        2.4045783187
 H         3.5921501292       -1.1362943403        1.3479764866
 H         5.5025433085        0.5058210142       -4.1017059165
 H         4.5517516896       -0.7763571618       -3.3675256286
 H        -0.3089351463        0.2585392917       -5.4146954291
 H         0.0518360561       -1.3441767889       -5.3236157923
 H         1.0020954680        2.3184435976       -4.5461257579
 H         1.6067323277        2.2174595390       -6.1142313727
 H         2.5618434574        2.9639009321       -4.9467612870
 H         2.2179014298       -0.4692784385       -6.3133883426
 H         3.8469041467        0.1970242618       -5.9882757754
 H         3.2604443715       -1.0998071519       -5.0189723670
 H        -1.8352016351        0.1246319388       -3.6539462029
 H        -0.7354682960       -1.1493470891       -2.9011370869
 H        -4.3238286060       -0.2846627434       -6.0671624385
 H        -5.0892563263       -1.8434102867       -6.0939170308
 H        -4.0126925941       -3.5498715442       -5.6923325498
 H        -4.8040566250       -4.0219184782       -4.0994702120
 H        -3.1963693247       -4.4886019183       -4.4786584322
 H        -2.9886499470       -1.7231957659       -1.9761450535
 H        -4.2141147678       -3.0188734247       -1.9492825648
 H        -2.4179279465       -3.4177892750       -2.4386029690
 H        -7.0333974647       -1.0565544644       -6.1608380416
 H        -6.9487731443       -0.5115523221       -4.4671313139
 H        -7.3009296092        2.8984295291       -8.6239676748
 H        -8.2711195480        1.7545495144       -9.5388155884
 H        -9.1034734436        2.7731663609       -8.5771723786
 H        -8.6506632875        0.9707807597       -3.9417312620
 H        -9.2390095713        0.0445353136       -5.2285253277
 H        -9.8425850543        1.7474320691       -4.9557839597
 H        -8.2302100177        3.5270324408       -6.7130422051
 H        -8.5859194569        3.5957464001       -5.0296068316
 H        -6.8164529527        3.4144782133       -5.8523494355
 Na        1.9284533670        1.4971819892       -0.8408612906
