155

 C         1.4251176172        5.4387949059       -5.2691816482
 C         2.5918615352        4.4807458029       -5.8320971116
 C         3.9028190293        4.0551382307       -5.1967347048
 C         3.7458271855        2.6895391657       -4.4175281736
 C         2.4063745536        2.3007993927       -3.8566522435
 C         5.0673646036        3.9890084143       -6.1660395639
 C         4.1183321990        5.2158589695       -4.2148793727
 O         2.4657088467        4.0577174461       -6.9493054775
 O         4.7006511007        1.9675621900       -4.3073183418
 C         2.2734610189        0.8818396360       -3.1534654792
 C         2.5423866360       -0.3119720800       -4.4102040227
 C         3.3832077056       -1.6000180613       -3.7513566321
 C         2.6992469058       -2.9558252297       -3.8350997044
 C         2.9165164242       -3.9687577313       -5.0762241171
 O         2.1837362674       -0.3426892649       -5.5795357128
 O         1.8447192306       -3.2593264867       -2.9573690089
 C         4.6908960400       -1.5089381906       -4.6757283947
 C         3.7039524142       -1.3844108153       -2.3168068125
 C         2.3059015327       -3.4930776834       -6.4432727111
 C         0.7401998753       -3.5566153039       -6.4778932081
 C        -0.0956325112       -3.4813177175       -7.9081286173
 C        -1.6249236067       -3.1825523270       -7.4269006078
 C        -2.5484303043       -4.3821599365       -6.7778858451
 C         0.3806969138       -2.1801789096       -8.8055460687
 C         0.2003210664       -4.7129341058       -8.8032369056
 O         0.1026145257       -3.6637439319       -5.4192557235
 O        -1.9890081585       -2.0624946528       -7.5380993367
 C        -3.4610479478       -3.8485295235       -5.4784732223
 C        -2.8663968099       -4.0519283816       -4.1037554531
 C        -3.2971864047       -3.0717345269       -2.8246171919
 C        -2.4369933423       -3.6827728620       -1.5830615705
 C        -3.0023445615       -4.9399300728       -0.8588624826
 O        -2.3778690846       -5.0852407612       -3.8446064799
 O        -1.1967995729       -3.3537371955       -1.4835888747
 C        -2.7922901164       -1.6714691113       -3.2712137944
 C        -4.7906419197       -2.9930977493       -2.4875345676
 C        -1.9531664422       -5.6946638330        0.0647525680
 C        -0.3054072066       -5.5557410319       -0.1255672585
 C         0.4861004098       -4.8514238700        1.0825727714
 C         0.0152112794       -3.2453652305        1.4019453328
 C         0.8752094712       -2.0699585458        0.8296210190
 C         0.1404764635       -5.5856348417        2.3787618457
 C         1.9671314665       -4.8679021469        0.5561267215
 O         0.3087292242       -5.9541811175       -1.0588882410
 O        -0.9960620602       -3.0473170760        2.0250518336
 C         0.6267362042       -0.6249814047        1.4427632403
 C         1.0686020569        0.3429690089        0.4354142859
 C         1.0984291481        1.9077925073        0.8214988393
 C         1.3074271789        2.3194221344        2.3455546835
 C         0.4691874306        3.3696606259        3.1593867055
 O         1.4070707894        0.0609487555       -0.7034782299
 O         2.1719098666        1.7906832887        2.9499318629
 C         2.3976725444        2.5404789961        0.0011996270
 C        -0.2689885765        2.4788602545        0.3913546146
 C        -0.1463503030        2.5687204196        4.3369138310
 C        -0.7931504387        3.3753187506        5.5507171743
 C        -2.0244736874        2.5499392583        6.1967116656
 C        -1.8538095497        2.9985961428        7.7193182001
 C        -2.7676737585        4.0930289454        8.2343746389
 C        -3.2641076737        3.0833488277        5.3503540202
 C        -1.7512630907        0.9699722338        6.1663877548
 O        -0.3050517155        4.4284582395        5.8757625979
 O        -1.0179662194        2.4715364330        8.3467776133
 C        -3.1276350172        4.0227731910        9.7782372245
 C        -4.7524329157        4.2537486165        9.9836246424
 C        -5.4288313383        5.5181718962       10.8833176311
 C        -4.4871019807        6.8663460407       10.7655841906
 C        -3.7935076991        7.4733954630       12.0407563717
 O        -5.4481261046        3.5754518288        9.2408521635
 O        -4.5991276932        7.4498899438        9.7164973209
 C        -6.6796111704        5.7970855815       10.0051713960
 C        -5.8926307429        5.0120450452       12.3304624986
 H         0.8835129069        4.7692994698       -4.5179744037
 H         1.8930173071        6.3589497608       -4.7669333943
 H         0.7385870288        5.7034882599       -6.0940310250
 H         1.9354237530        2.9497588013       -3.0244238771
 H         1.7585070514        2.2053063654       -4.7634244665
 H         5.7410816626        3.3650057152       -5.6832813472
 H         5.4513732434        4.9334446073       -6.5083802850
 H         4.7652652629        3.3708513915       -7.1006583796
 H         5.1589355436        5.1006423864       -3.6795559527
 H         4.0664082272        6.1364349027       -4.8677451591
 H         3.4838048636        5.2149526728       -3.2882385989
 H         2.8603090407        0.6317374771       -2.2507093892
 H         1.2130163394        0.6621626568       -2.8878729714
 H         4.0491863646       -4.0581047899       -5.2662795548
 H         2.5920393288       -4.9086405678       -4.7357858563
 H         5.4618266834       -2.1170618594       -4.2666155938
 H         5.1238089009       -0.4383274570       -4.8237517786
 H         4.4703029171       -1.8004581939       -5.7265629251
 H         2.9521884092       -1.0794494451       -1.5881456638
 H         3.8691947633       -2.3269451765       -1.7766277425
 H         4.5812630849       -0.7056731061       -2.1181804320
 H         2.7931660156       -4.0401851351       -7.2536403364
 H         2.4774063287       -2.3746338216       -6.4913258385
 H        -3.1727660061       -4.7458324082       -7.6319659211
 H        -1.8241983058       -5.0721111229       -6.4688204770
 H         1.5073869608       -2.1915528280       -8.8365000937
 H        -0.0180603735       -1.4155897264       -8.1553199959
 H        -0.0406661841       -2.1298495379       -9.7883582156
 H         0.0185303571       -4.5890255911       -9.8110337392
 H         1.2598893083       -4.8195466217       -8.7088350896
 H        -0.2609171620       -5.6124564855       -8.3469664289
 H        -3.7788607631       -2.7848206200       -5.6407720312
 H        -4.4713915066       -4.2436478303       -5.3656757249
 H        -3.8467025140       -4.7026911250       -0.1262659111
 H        -3.4187782533       -5.5499814413       -1.6711459232
 H        -3.3959165526       -0.8264418408       -2.9167817958
 H        -2.7600349986       -1.6592083510       -4.2997657800
 H        -1.8134328846       -1.4654655204       -2.7408452740
 H        -5.2111692399       -3.9369603100       -2.2773727628
 H        -5.0428428825       -2.2495307105       -1.6986276470
 H        -5.1642135364       -2.5115374447       -3.3134841376
 H        -2.1343022499       -6.7880032874       -0.0576905628
 H        -2.0386174730       -5.3833880482        1.1975020589
 H         1.9446917279       -2.2270227059        1.0143849923
 H         0.8221036206       -2.0923788080       -0.2544762102
 H        -0.1008147361       -4.8710744275        3.2061673948
 H         1.0547778271       -6.1902543313        2.7869930433
 H        -0.7298493561       -6.3437340491        2.3100036142
 H         2.0980188502       -4.0609601890       -0.1354781299
 H         2.5894571428       -5.0187655616        1.4710216814
 H         2.1022519338       -5.7981195280       -0.0943873175
 H        -0.4803853119       -0.4627792576        1.5903430691
 H         0.9984048131       -0.1963657562        2.3796963759
 H         1.1809334765        4.2541115032        3.4005598967
 H        -0.4178267038        3.7202211933        2.5834614003
 H         3.2247987131        1.8903105138        0.2838305468
 H         2.6034851772        3.5966129590        0.1249380309
 H         2.2686614405        2.3384585511       -1.0020381836
 H        -1.0875296118        2.0988905589        1.0787230023
 H        -0.0278875668        3.4896715069        0.4081045977
 H        -0.5209854675        2.2584164292       -0.5889278671
 H         0.6185402654        1.9135974379        4.7981316378
 H        -0.9740596782        1.8340045785        4.0946448685
 H        -2.2920104245        5.0623296701        7.9697287202
 H        -3.7461331132        4.1954528323        7.7487929542
 H        -3.0615693077        2.6947817178        4.3111698007
 H        -3.1481316741        4.2066365534        5.1927034194
 H        -4.1273879518        2.8755418382        5.8905836740
 H        -1.1886570713        0.5745890397        6.9642986325
 H        -2.7561355891        0.5251408944        6.5733031198
 H        -1.3227996389        0.4757121646        5.3188778791
 H        -2.9875341921        3.0077587162        9.9694566752
 H        -2.5521942384        4.7714383906       10.3121152161
 H        -3.1337370400        8.2003123259       11.7168560607
 H        -4.4975575992        8.0987919410       12.6594583556
 H        -3.3526047366        6.7093307080       12.6440910590
 H        -7.2922292613        6.5698124814       10.5516947211
 H        -7.3955079261        5.0392994854        9.9056537508
 H        -6.5645409393        6.1036674003        9.0046862991
 H        -6.4767791403        4.0092534636       12.2266600917
 H        -5.1410942108        4.7821492371       13.1234178122
 H        -6.6046458057        5.7723970101       12.7294118345
 Na       -0.2280276944       -4.3073152236       -3.2198887519
