155

 C         1.3927193671        5.1855580054       -5.0244592138
 C         2.4386612094        4.3431083508       -5.8070925209
 C         3.8907059741        4.0343126705       -5.1302828665
 C         3.6941535203        2.6268834026       -4.5444262816
 C         2.2004459087        2.2577644673       -4.0791252775
 C         4.9323517475        3.9871669018       -6.2108097989
 C         4.3634877823        4.9897748066       -3.9977365578
 O         2.2381287538        3.9562553925       -6.9715686034
 O         4.6288722935        1.9712333068       -4.1012845838
 C         2.0723341442        0.8450695743       -3.3652387717
 C         2.6406801369       -0.2705940864       -4.4357972343
 C         3.4651905181       -1.5437899081       -3.7915086441
 C         2.4526258845       -2.7648899319       -4.0194258656
 C         2.8241180502       -3.7501673408       -5.2174135638
 O         2.5155347263       -0.2709105085       -5.6156600938
 O         1.4518913133       -2.8225030501       -3.3366858161
 C         4.7922666641       -1.6020988316       -4.5074534665
 C         3.6873320200       -1.5969650296       -2.2235363527
 C         2.1688682855       -3.3832260638       -6.6046929841
 C         0.6213245051       -3.6424977661       -6.4998366336
 C        -0.1628440231       -3.3990855123       -7.7508401860
 C        -1.5686444069       -3.1530146812       -7.2500293484
 C        -2.3791861188       -4.3091188489       -6.4640941143
 C         0.4263956473       -2.2184766791       -8.6584134272
 C        -0.1302161056       -4.8321667433       -8.5893298363
 O         0.1737626828       -3.9503019788       -5.4064626900
 O        -2.0685874054       -2.0574544761       -7.3561194372
 C        -3.3097167227       -3.5706152156       -5.5247524607
 C        -3.0303464993       -4.0124979222       -4.0703690756
 C        -3.2280938341       -3.2277056807       -2.8356763155
 C        -2.4271389858       -3.8580267686       -1.6527772911
 C        -3.0612035784       -4.8432033979       -0.7073997478
 O        -2.5174518851       -5.1940388546       -4.0575867570
 O        -1.3866144915       -3.3797139284       -1.4514595137
 C        -2.7922922212       -1.7263985428       -2.9164847566
 C        -4.7805105995       -3.2167594169       -2.3194765909
 C        -2.0567917648       -5.7292574027        0.0815585875
 C        -0.5553337100       -5.3540289748       -0.2037830904
 C         0.3514762930       -4.7943370946        0.9471664269
 C         0.1102472596       -3.1885932245        1.3038117798
 C         1.0621979952       -2.0883297176        0.8747521332
 C         0.1015195764       -5.6304340838        2.2246702239
 C         1.8895103080       -4.9637379328        0.6118612211
 O        -0.1160325665       -5.6563310560       -1.3627204211
 O        -0.8763576936       -2.9857106611        1.9939630130
 C         0.5637731921       -0.7582978431        1.2851458019
 C         1.0604527206        0.4816246919        0.4398168400
 C         0.8825909614        1.9352059583        0.9266783110
 C         1.2471197286        2.0981337856        2.4277456158
 C         0.7610024995        3.3642954506        3.1284659637
 O         1.2844512732        0.2486652108       -0.7171705197
 O         1.8907025208        1.1820585689        2.9679076400
 C         1.9236181346        3.0180122526        0.3307732220
 C        -0.5579596366        2.4424070529        0.3085021377
 C        -0.1962734416        2.7830176299        4.0955501149
 C        -0.6799690923        3.5951143076        5.2489689683
 C        -1.6855053499        2.6388500246        6.2783308702
 C        -1.6966074457        3.2700253464        7.8038374983
 C        -2.6179250145        4.4643561065        8.1033749741
 C        -2.9831017500        2.8836801472        5.6258767132
 C        -1.3271728574        1.1627344821        6.3649628777
 O        -0.4927493168        4.8083358716        5.2712038630
 O        -1.0742688635        2.6729899204        8.7080288495
 C        -2.9747180849        4.5949131902        9.6307923986
 C        -4.4567267732        4.3518866937        9.8519948443
 C        -5.2955158557        5.4396689367       10.6748474608
 C        -4.2848100139        6.6569288669       10.7803310880
 C        -3.4170957755        6.6600001915       12.1117380980
 O        -5.0146224987        3.3789922539        9.3882120454
 O        -4.3181927539        7.4978416055        9.8870621789
 C        -6.5475778800        5.7293951377        9.8448535270
 C        -5.5986236637        4.8507800991       12.0182038427
 H         1.5353476577        5.0248770443       -3.9653026298
 H         1.7194874564        6.1726336738       -5.2892764730
 H         0.3708954709        4.8823621577       -5.3995693232
 H         1.7574526064        2.9747756243       -3.4424658943
 H         1.7399199675        2.0840341160       -5.0572600869
 H         5.9446711664        3.7465364645       -5.7660017470
 H         4.8940874297        4.9725889346       -6.7565218063
 H         4.7297667699        3.2519410969       -6.9431721210
 H         5.3626863187        5.1851761322       -4.0425093970
 H         3.9159083402        5.9141539636       -4.0820293015
 H         4.1622814179        4.5526652487       -3.0788990604
 H         2.4878161710        0.6344333457       -2.3683164522
 H         1.0683168722        0.4935103270       -3.2741558558
 H         3.8491603234       -3.8690490869       -5.2059883457
 H         2.3574433054       -4.7385579725       -4.8908383522
 H         5.4195994563       -2.4313985822       -4.1583342182
 H         5.3098213941       -0.7673796935       -4.1933192006
 H         4.6969835689       -1.5034386865       -5.5512991112
 H         2.7809306783       -1.8877067080       -1.6847206579
 H         4.3345825918       -2.3691006605       -1.8521704931
 H         3.9486326726       -0.6752830521       -1.6851459315
 H         2.5463510106       -4.1037885608       -7.4079499490
 H         2.2632803784       -2.2928071116       -6.8579062390
 H        -2.9141963796       -4.8108441796       -7.2360647772
 H        -1.7681236022       -5.0635321070       -5.8899892455
 H         1.4600938265       -2.4397631382       -8.7646238196
 H         0.2670909110       -1.3447636918       -8.0193044447
 H        -0.1329171388       -2.1267322988       -9.5990098563
 H        -1.1288036942       -4.9552949386       -9.1438570181
 H         0.7301410947       -5.0028057514       -9.2650416671
 H        -0.1052766298       -5.5305089533       -7.8195910544
 H        -3.1743088755       -2.4808607701       -5.6171729926
 H        -4.3918754357       -3.6231212227       -5.8858211855
 H        -3.6057989887       -4.3031883005        0.0292231058
 H        -3.7288865084       -5.4815546133       -1.3312271379
 H        -3.5028279173       -1.0780080562       -3.4701011206
 H        -1.9012716205       -1.7857021745       -3.6433079032
 H        -2.5714848777       -1.3345287290       -1.9677260476
 H        -5.0336970729       -4.2945533120       -2.1293249357
 H        -4.8455839604       -2.7422361090       -1.3386919609
 H        -5.5060071374       -2.7460234289       -3.0641987362
 H        -2.1312031892       -6.6493688117       -0.4131356699
 H        -2.2340371038       -5.8198160089        1.1245961199
 H         2.0337382515       -2.1502333587        1.4442825956
 H         1.2996633683       -2.2577118128       -0.2320904296
 H        -0.5041837258       -5.1291860057        2.9612967745
 H         0.9330933379       -5.9816576914        2.6977242938
 H        -0.5046480354       -6.4543630806        1.9567164286
 H         2.0189843170       -4.6714640395       -0.4524310919
 H         2.3951307988       -4.4126742778        1.3928982751
 H         2.2158595313       -5.9639448103        0.6062498977
 H        -0.5396824457       -0.8623490659        1.3730368899
 H         0.8282730768       -0.3950868463        2.2979349994
 H         1.6325160147        3.9179609052        3.4990853105
 H         0.2526589483        3.9959401960        2.4811382912
 H         2.7587532108        3.2452172872        1.0341129390
 H         1.3323738304        3.9451977753        0.1321516420
 H         2.3259574823        2.7056738749       -0.7168737787
 H        -1.1512918986        1.5508202435        0.3402232460
 H        -0.9342097641        3.4238895044        0.6096274621
 H        -0.3568239000        2.6054162734       -0.7897279619
 H         0.2738213108        1.8450295524        4.4270095636
 H        -1.1155002588        2.4933315955        3.7059017504
 H        -2.4208277926        5.3371549024        7.5104229320
 H        -3.5888972374        4.1902416326        7.6885721583
 H        -2.9832931695        2.4908623346        4.6130566747
 H        -3.0606598661        3.9547431113        5.4695410862
 H        -3.6930511572        2.5219568386        6.3401626611
 H        -0.9344946107        0.8312996770        7.3100427089
 H        -2.1446805269        0.4462662911        6.2235860871
 H        -0.6323064625        0.8223220741        5.6211873750
 H        -2.4293838159        3.6767341544       10.0166363075
 H        -2.7118581467        5.5566580129       10.0436864665
 H        -2.5699077888        7.4084529164       12.1976724661
 H        -4.1251503656        6.9773605791       12.8493655372
 H        -3.2008194423        5.5867957735       12.3787158613
 H        -7.2718346153        6.3671748753       10.2278849343
 H        -7.2634232293        4.7750108640        9.6970694911
 H        -6.2988254063        6.0852135704        8.8313979315
 H        -5.9864723008        3.8412904439       11.9401689632
 H        -4.7313854615        4.8105577066       12.7091201520
 H        -6.3286073421        5.4928015181       12.5557400548
 Na       -0.1009182235       -4.4428802276       -3.1116156901
