155

 C        -0.5443000359       -9.2643889086        5.7232732790
 C        -0.0940974529       -7.8424872109        5.2902012986
 C         0.7697453448       -7.0005625784        6.3641339555
 C         1.0246988361       -5.5857946442        5.8976389048
 C        -0.0670954055       -4.8562832651        5.2110418569
 C        -0.2053741043       -6.7558942892        7.6135212838
 C         1.9992999786       -7.8126917762        6.7431777562
 O        -0.1256439131       -7.4864742917        4.1298707282
 O         2.0115300671       -4.9299307644        6.2296261391
 C         0.0189593663       -3.3622211601        5.5071709530
 C        -0.9325823081       -2.4478167214        4.5224155572
 C        -1.4956641132       -1.0127199172        5.0269804294
 C        -2.1781108730       -0.1018594763        3.8413007379
 C        -1.2454140689        0.4162638037        2.8271222342
 O        -1.0850820361       -2.7375921906        3.3271740534
 O        -3.3329227530        0.2565821670        3.9300749845
 C        -2.6840708830       -1.3133519926        5.9924283339
 C        -0.6223768113        0.0716770570        5.6544643887
 C        -1.7757207433        1.6841879330        2.0790944170
 C        -0.8466467205        2.0859312165        0.9243944964
 C        -1.1050633872        3.3465750611       -0.0420376869
 C         0.2578979220        4.1441910742       -0.1297209022
 C         0.3327236842        5.4711133960        0.5986404841
 C        -1.4245875704        2.6610113346       -1.4218164795
 C        -2.2325506963        4.1631194540        0.3803616501
 O         0.2657441022        1.5253844961        0.8087648294
 O         1.1439230846        3.7526173010       -0.8291952821
 C         1.6582388054        5.4440731865        1.3565904651
 C         1.6453480026        4.3588163642        2.5730480976
 C         2.9224027272        4.3542864414        3.4552739592
 C         4.0541327993        3.7385708471        2.6221559030
 C         4.9438951851        2.6713246808        3.2674378426
 O         0.6551266472        3.6954911647        2.8892870301
 O         4.3665894794        4.3034609512        1.5509720356
 C         3.3992954191        5.8162029818        3.6828657195
 C         2.5480052208        3.7707830577        4.8606831453
 C         5.5890545350        1.6969413884        2.2700114818
 C         4.6302767304        1.0503445240        1.2511909835
 C         5.0924836491       -0.2444150838        0.4320131226
 C         4.5826428797       -0.2918550179       -1.0284470331
 C         5.5149245706        0.2292024080       -2.1830419251
 C         6.6500903184       -0.4743607632        0.4059438074
 C         4.4151380377       -1.4296864443        1.2722122965
 O         3.5847778370        1.5551842842        0.9513038595
 O         3.4905226291       -0.8148160763       -1.2970521454
 C         4.6984922098        0.0687173969       -3.5119082809
 C         3.4713463942        0.9825791906       -3.4978480407
 C         2.4235658828        0.7709142806       -4.5660500485
 C         1.1673678811        0.0196420508       -3.8300248291
 C         0.0586012644       -0.3973416545       -4.7356330584
 O         3.2915540658        1.8129128962       -2.6173766325
 O         1.0850169277        0.0241431453       -2.6290106936
 C         2.0147705642        2.1523402322       -5.0833570402
 C         2.9332631102        0.0216117820       -5.8912433690
 C        -1.3369361260       -0.7460026923       -3.9959244587
 C        -2.0566770049       -1.9332517860       -4.6165269240
 C        -3.4813965802       -2.3625974331       -3.8819170833
 C        -4.5162039627       -1.2349747102       -4.1812168987
 C        -5.0500758622       -0.9054228076       -5.5328873701
 C        -3.9801612224       -3.5722824555       -4.7123919143
 C        -3.3433644738       -2.4664500425       -2.3392907251
 O        -1.5283894582       -2.6959791346       -5.4062749097
 O        -5.0256172847       -0.5850844728       -3.2713947878
 C        -6.5388932688       -0.2687670137       -5.5207376147
 C        -6.5157312947        1.2555037200       -5.6841998166
 C        -7.9082938496        1.8748164465       -5.9290985756
 C        -8.3145063865        1.3313668785       -7.4131625762
 C        -7.8086259555        2.0475598367       -8.6630179963
 O        -5.4805920646        1.9081434440       -5.6089372899
 O        -9.0459260818        0.3628707976       -7.4364640628
 C        -8.8913270808        1.1731522169       -4.9046495215
 C        -7.9598811666        3.3903999386       -5.7693412678
 H         0.2420385486       -9.9502479959        6.2137216084
 H        -1.1656243099       -9.0693583346        6.5439314026
 H        -0.8172695235       -9.7292605944        4.7872733233
 H         0.1008124759       -5.0031089407        4.1271763330
 H        -0.9953522528       -5.4181525725        5.3929083232
 H        -1.1804888902       -6.3086227006        7.3703820270
 H         0.3186511766       -6.3925865333        8.4690343399
 H        -0.6316883891       -7.7637096500        7.8577543300
 H         2.5816454915       -7.9516821648        5.8237237672
 H         2.5728839179       -7.3998851600        7.4987679090
 H         1.7521080400       -8.7672074947        7.0850900331
 H        -0.2165164715       -3.0330386261        6.5557094352
 H         1.0375772483       -3.1178454222        5.3410499263
 H        -0.3380278082        0.7253437077        3.3019803757
 H        -1.0622233612       -0.5074799371        2.2371319420
 H        -3.0978893746       -0.3667214497        6.3566752026
 H        -2.3393561066       -2.0030584908        6.8689100952
 H        -3.3407573099       -1.8033285225        5.3109431104
 H        -0.4791308623       -0.2291053180        6.6465458838
 H         0.2871078061        0.2288906116        5.0732526523
 H        -1.1937116090        0.9947596461        5.5977810389
 H        -1.6305132797        2.5045902228        2.7965263860
 H        -2.7580985888        1.7305670564        1.8094046851
 H         0.1440611054        6.3131855930       -0.0855038073
 H        -0.4282033208        5.6018299422        1.4078176589
 H        -0.5460304225        2.1080776721       -1.6752194876
 H        -1.4938926464        3.4564031146       -2.2314747503
 H        -2.3646432981        2.1176897984       -1.4430055927
 H        -3.2023648693        3.7524949658        0.1998168755
 H        -2.3179867574        4.3613186257        1.4535722310
 H        -2.2986969913        5.0689179593       -0.0980909619
 H         2.4759339132        5.3636161760        0.5940428522
 H         1.7816049618        6.4454958864        1.7565569828
 H         5.8372128736        3.0502304071        3.8113753770
 H         4.4153850679        2.1050395107        4.0043585529
 H         3.8974645114        6.2332044457        2.7466723200
 H         4.0376685038        5.7652697356        4.5779565662
 H         2.5206393363        6.4450017473        3.8932749799
 H         1.7883733373        4.3179978243        5.4363000336
 H         2.2112835985        2.7361037201        4.7125023462
 H         3.4319591794        3.6753490073        5.5324627464
 H         6.1833963097        0.8568110124        2.6754090217
 H         6.4154390897        2.2046240156        1.7657157814
 H         5.9625088262        1.1939961209       -2.2204338416
 H         6.2819872323       -0.5241274095       -2.1393234227
 H         7.2255036825        0.4136264912        0.2371496161
 H         6.8622075397       -1.2386971760       -0.3029284014
 H         6.9474996860       -0.8296572220        1.4030871794
 H         4.6884978305       -2.3856240298        0.9351888881
 H         4.9636087904       -1.3786646499        2.2935117043
 H         3.3535330961       -1.2375603508        1.4991830758
 H         5.3172539505        0.2082331653       -4.4464544021
 H         4.1679158483       -0.9327140834       -3.5433537258
 H        -0.0961088736        0.4572571223       -5.5208532830
 H         0.3953620921       -1.2025434744       -5.4595868640
 H         1.3168129896        2.7875728606       -4.4164107476
 H         1.5534125843        2.1330876184       -6.0806948749
 H         2.9242117728        2.7169276180       -5.3269963094
 H         2.1088146222       -0.1036675899       -6.5610816003
 H         3.7188495157        0.7561262846       -6.3366329907
 H         3.4701988794       -0.9567667295       -5.7254705383
 H        -1.9726414658        0.0848662635       -3.9040596770
 H        -0.9629171819       -1.0851854691       -3.0413099181
 H        -4.5147565818       -0.0622660276       -6.0293390283
 H        -4.9005094152       -1.7380703536       -6.1917809889
 H        -3.4895828472       -3.6639172439       -5.6288222186
 H        -5.0680739762       -3.7544235554       -4.6857736757
 H        -3.5952972752       -4.4765378253       -4.1977824840
 H        -3.5960058987       -1.4655031196       -1.9071170387
 H        -4.1925481779       -3.0639017179       -2.0923971672
 H        -2.4600857000       -2.9849085611       -2.2137991302
 H        -7.2105236279       -0.7789988601       -6.1818519038
 H        -6.9585214979       -0.2302634118       -4.4700751984
 H        -6.7087121241        1.9467632554       -8.4951985056
 H        -8.1007644323        1.6563372730       -9.6264478461
 H        -8.0772022982        3.1039374804       -8.7735079508
 H        -8.4913938624        1.1161770994       -3.9097002252
 H        -9.1366774159        0.2018023603       -5.1672088483
 H        -9.7471721117        1.8960160549       -4.8471451876
 H        -8.3213743869        3.9922837234       -6.6924101651
 H        -8.6954827329        3.5186973738       -5.0283711198
 H        -6.8973765557        3.6843377950       -5.6336258680
 Na        1.8601227445        1.1645985527       -0.8090643030
