155

 C         1.6150762995        6.2975384273       -5.8804027382
 C         2.0286324490        4.9848867655       -4.9633005649
 C         3.3425684057        4.1312177831       -5.4669078491
 C         3.3497106922        2.7697965191       -4.8580772356
 C         3.4448246000        1.5118966716       -5.8139965072
 C         3.3797029383        4.0569922931       -7.1885343021
 C         4.6366803593        4.9379655939       -5.0340972507
 O         1.3273113962        4.5954187337       -4.0508584646
 O         3.1089217182        2.6408329310       -3.7022142215
 C         2.9605326699        0.1097623302       -5.0766173393
 C         4.1285093050       -0.8471846610       -5.0682945772
 C         3.9775995218       -2.4319584246       -4.3653216642
 C         2.5933568523       -2.7732208251       -4.6964081438
 C         2.3567397558       -3.3374836325       -6.1275267140
 O         5.2048061310       -0.4747439447       -5.3283114879
 O         1.6106932187       -2.4182285970       -3.9399543202
 C         4.9386372140       -3.4308406161       -4.9940344394
 C         4.0739361650       -2.1773630157       -2.8906868378
 C         0.9571260025       -3.1600927401       -6.8897737177
 C        -0.2540291975       -4.0896313968       -6.7637358284
 C        -1.3511205872       -4.2012950752       -7.9758273300
 C        -2.6615717868       -3.3245641165       -7.3403502109
 C        -3.7001230848       -4.0512646462       -6.5435743565
 C        -0.9695612912       -3.5047026868       -9.3278346370
 C        -1.8665146719       -5.7089374142       -8.1710794134
 O        -0.6492302361       -4.6658958891       -5.7758202212
 O        -2.6605565304       -2.1297481324       -7.5265544661
 C        -3.9557313086       -3.2660428502       -5.2634934914
 C        -3.7878741762       -3.7870887376       -3.9132678835
 C        -4.3282204032       -3.1124192608       -2.6141472100
 C        -3.6059958203       -3.6394753894       -1.2347556583
 C        -3.2325135697       -5.1069912496       -1.0385279789
 O        -3.3333746218       -4.9595991313       -3.8032393821
 O        -3.2845150595       -2.7687582237       -0.4837760699
 C        -4.1617964686       -1.6009632812       -2.6099964331
 C        -5.8937653703       -3.4836171280       -2.7070869231
 C        -2.3894377272       -5.4397428963        0.1037263477
 C        -0.9243705520       -5.0864882664       -0.3146750011
 C         0.3061886272       -4.7495812305        0.5664739517
 C        -0.0642717017       -3.7744708028        1.8679118895
 C         0.3807667366       -2.2570020734        1.8954430310
 C         0.5979545155       -6.0637218218        1.2784284946
 C         1.5804453923       -4.4430833909       -0.3673013708
 O        -0.7508842971       -5.1487862039       -1.5552241770
 O        -0.7729625106       -4.2996582255        2.6938506559
 C        -0.7780492222       -1.2992897564        1.6045216385
 C        -0.5055787669       -0.1045822429        0.5307055805
 C        -0.4344202483        1.3791608711        1.0355843785
 C         0.0005248994        1.3602404681        2.4931303608
 C        -0.8247554250        2.0977720852        3.5646616100
 O        -0.0121693931       -0.2820836278       -0.5707248331
 O         0.9972128369        0.7559341814        2.7209890435
 C         0.6840808527        2.2049568778        0.2562752425
 C        -1.8423051611        1.9830000568        0.6686906462
 C         0.0940106391        2.3716260418        4.7772166851
 C        -0.4961335086        3.3746140571        5.7725653351
 C         0.6591340839        4.0484167186        6.6998926362
 C         0.2854683613        5.5502381234        7.2240639061
 C        -1.1556773850        5.7235394427        7.8134152627
 C         0.9685191046        3.2139514287        8.0396593917
 C         1.9078296422        4.2136842124        5.8219682620
 O        -1.6933409222        3.5710293851        5.8748953042
 O         1.0712848705        6.4344251255        7.2799941556
 C        -1.0117860652        6.4254917939        9.2026423699
 C        -1.5393476180        5.4041820094       10.2743298601
 C        -3.1776557736        5.7090307581       10.7146516242
 C        -3.3428222417        5.1846170503       12.2547266558
 C        -3.8231912352        3.7392889209       12.3687851710
 O        -1.0008014533        4.3776757841       10.6488512681
 O        -3.2670174779        5.8986762915       13.2608660714
 C        -3.7612611540        7.1479485400       10.4707474226
 C        -3.8332527610        4.8564591342        9.5654205936
 H         0.4748770886        6.0760433675       -5.9949645346
 H         1.6719185190        7.1187378872       -5.1273192348
 H         2.3687164013        6.3704739905       -6.7552832849
 H         2.8438633704        1.6014724839       -6.7577942451
 H         4.4985835552        1.2120960616       -6.1639274221
 H         4.0178407419        3.2850334716       -7.4087769935
 H         3.8742044998        5.0308839373       -7.4014398686
 H         2.3528672701        3.9135441256       -7.5728872451
 H         5.4842750318        4.3635755222       -5.3988515559
 H         4.5198205666        6.0214938135       -5.1594690793
 H         4.7393498104        4.9848965369       -3.9380892547
 H         2.9673817679        0.4036999024       -4.0467800261
 H         1.9358214372       -0.3669028428       -5.3248657684
 H         3.0260032812       -2.8139562881       -6.7158977436
 H         2.5110614144       -4.4373206711       -6.1952075996
 H         4.8485824082       -4.1347808872       -4.2308411398
 H         6.0109297079       -3.0332374676       -4.9820826926
 H         4.6026782833       -3.9003624117       -5.9280698857
 H         3.1995680413       -1.7010911255       -2.4568990013
 H         3.9497565802       -3.0367634023       -2.2768571968
 H         4.8984486204       -1.4960143469       -2.5524909903
 H         1.0920741686       -3.2131244593       -8.0188173006
 H         0.4938959127       -2.2111437991       -6.5696484734
 H        -4.5657060869       -4.1693971479       -7.1058323451
 H        -3.3536456734       -5.0524579424       -6.2505999258
 H        -0.2114528428       -4.1435537313       -9.7841840994
 H        -0.5454866408       -2.4770225274       -9.1575284264
 H        -1.8662222799       -3.4578089931       -9.8685606353
 H        -2.6651325809       -5.7682405862       -8.8415720744
 H        -0.9540895618       -6.1625847381       -8.5761681977
 H        -2.1905691306       -6.3513112005       -7.2728263853
 H        -3.2318943298       -2.3419307146       -5.1423500857
 H        -4.8937856152       -2.6506941740       -5.3418340341
 H        -4.1917173243       -5.6817537399       -1.1806858000
 H        -2.7928406687       -5.4299032532       -1.9715750725
 H        -4.5628738312       -1.1671411567       -3.5687339150
 H        -3.1878912143       -1.2766640355       -2.6107221587
 H        -4.6971941711       -1.1538703931       -1.7686547862
 H        -6.1509164540       -4.5814650575       -2.7500181217
 H        -6.3036903313       -2.9471707361       -1.7614944139
 H        -6.3029951848       -3.0981092599       -3.6496419652
 H        -2.2663851309       -6.4172450467        0.4024979116
 H        -2.5337511698       -4.7410302557        0.9856164421
 H         0.7407741140       -2.1454156474        2.8914684808
 H         1.2688083793       -2.0782785427        1.3205232960
 H        -0.1164703363       -6.2751375575        2.0453026675
 H         1.5807890964       -5.9604069094        1.7227261733
 H         0.7244997429       -6.8969522715        0.6267053091
 H         1.3871296617       -4.2877432674       -1.4128177552
 H         2.1023464915       -3.4874254529       -0.1582050925
 H         2.3158194855       -5.1664471006       -0.2424505726
 H        -1.6355937408       -1.8909730501        1.2964349998
 H        -1.1178356343       -0.8091741531        2.5005469441
 H        -1.0587237159        3.0865734539        3.0977699347
 H        -1.8543355676        1.6358753190        3.7395352168
 H         1.7177268434        1.9083845117        0.6350550998
 H         0.6587322760        3.2742550760        0.6834086830
 H         0.6470544582        2.2127897615       -0.8158506299
 H        -2.7996329057        1.5604950238        1.2022103846
 H        -2.0074508865        3.0222692539        0.8258725309
 H        -1.8599677419        1.9048854596       -0.3751813371
 H         1.0566766618        2.7955723471        4.3416634088
 H         0.4356041276        1.4603834547        5.2358756464
 H        -1.9183586421        5.9995025479        7.1404542911
 H        -1.3048304835        4.6912934998        7.8806986607
 H         0.8478274976        2.0790326374        8.1497338018
 H         0.2310309117        3.5906647267        8.8464067407
 H         1.9399698253        3.4210645998        8.4974980393
 H         1.5813500512        4.6631436285        4.8857895898
 H         2.4952880265        4.7304966250        6.4227495338
 H         2.3696037650        3.3041449110        5.7413979440
 H         0.0347831712        6.5799935083        9.4477782343
 H        -1.5805670663        7.3356322183        9.1315812565
 H        -4.8594837250        3.6216118703       12.2365072807
 H        -3.3539742095        3.2263267520       11.5136281210
 H        -3.4826014488        3.3503410427       13.3136925177
 H        -4.7478616039        7.0759566547       10.9907470898
 H        -3.9108739582        7.2640162504        9.4483725393
 H        -3.1474200418        7.9087234348       11.0329866288
 H        -3.3945822670        5.1533896901        8.6255982247
 H        -3.6894996579        3.8395326916        9.8034771775
 H        -4.8538151138        5.0587053488        9.4591834955
 Na       -0.8045041981       -3.9343644686       -3.4814545901
