155

 C        -0.4823247647       -9.3337009054        5.8038076453
 C         0.0369921069       -7.9239740432        5.4068512202
 C         0.7144680883       -6.9962550943        6.5138185404
 C         1.0102095528       -5.5439933831        6.0161280537
 C        -0.0356819970       -4.5118975526        5.3881594538
 C        -0.2030722423       -7.0119377383        7.7371561222
 C         2.0595764224       -7.5784143431        6.9401856334
 O         0.1247154014       -7.6186228198        4.2494171692
 O         2.1060500633       -5.1134580163        6.2215900223
 C         0.1452170746       -3.0178839001        5.5964726546
 C        -0.7360145983       -2.2447675457        4.5151069650
 C        -1.4847454434       -0.9765947703        5.1340417972
 C        -2.2880940565       -0.1535884262        4.0354521634
 C        -1.4861294932        0.2372217164        2.6768767472
 O        -0.8750642438       -2.3486389678        3.3259543053
 O        -3.4548879395        0.1333875040        4.0934119291
 C        -2.4621607902       -1.5138903577        6.1061208355
 C        -0.4171698012       -0.1902256255        5.9114790942
 C        -1.6949920723        1.6742106777        2.2357630975
 C        -0.8671748537        1.9368286379        0.9341864504
 C        -1.2026834807        3.2170723036        0.0735248541
 C         0.0501936155        4.0555098036       -0.0993022332
 C         0.3019100814        5.4161745015        0.6785617248
 C        -1.5229863092        2.5615030152       -1.2796075015
 C        -2.4657127500        3.9925988376        0.5065347468
 O         0.0523013778        1.2267296641        0.6602799617
 O         0.9674893515        3.6014170031       -0.8307062223
 C         1.7726533539        5.4373643189        1.1742318914
 C         1.7847776298        4.5779327846        2.4318593665
 C         3.1047441752        4.6697316100        3.4163132473
 C         4.2696124555        3.8097202464        2.5481109298
 C         4.8955483916        2.5063450949        3.1576827821
 O         0.8482799214        3.9273633945        2.8662219740
 O         4.5512304648        4.1548981471        1.4513393178
 C         3.5447446326        6.1825734696        3.7557380330
 C         2.8206277427        3.8926880412        4.7545502383
 C         5.6414180052        1.5762926307        2.1069340608
 C         4.6939953748        0.8685463311        1.0802044648
 C         5.0848305643       -0.5106118381        0.3247917140
 C         4.4990567285       -0.4099258672       -1.1656250777
 C         5.4369083474       -0.0500992856       -2.3546342524
 C         6.5977430274       -0.8446763864        0.3374481329
 C         4.2315130308       -1.5188065582        1.1619692929
 O         3.5733118042        1.3607380479        1.0107194708
 O         3.3247237344       -0.6706144590       -1.2264952906
 C         4.7173990952        0.0464187761       -3.7036917184
 C         3.3971708210        0.8781014981       -3.6256473921
 C         2.2797501805        0.8478639899       -4.6994819145
 C         0.9608400064        0.1990806814       -4.0697567723
 C        -0.1059864430       -0.5159072740       -4.8838392647
 O         3.3705638615        1.7105176117       -2.7296774787
 O         0.8180783508        0.2027783870       -2.8356603235
 C         1.8183540916        2.3587146418       -4.9927564460
 C         2.6374763444        0.0006213279       -5.9170733148
 C        -1.4293362951       -0.6953321145       -4.1535079544
 C        -2.1776777264       -1.9032442483       -4.6686775062
 C        -3.4866191662       -2.3454297224       -3.9469181173
 C        -4.5404129195       -1.1685030429       -4.2252951332
 C        -5.0187852493       -0.7785988171       -5.6272223255
 C        -3.9745135449       -3.7110751703       -4.5360764350
 C        -3.2396522619       -2.5331005007       -2.3772800008
 O        -1.6504881077       -2.6030284100       -5.5381152507
 O        -4.8784803497       -0.5495970887       -3.2535187463
 C        -6.4200143109       -0.1982876101       -5.7360312081
 C        -6.5080302505        1.3697444401       -5.6193359627
 C        -7.9383319626        1.9616170640       -5.8417978454
 C        -8.4185160368        1.4784494367       -7.3363617996
 C        -7.4493086256        1.8843221676       -8.4673470446
 O        -5.5134125153        2.0001970151       -5.3371028989
 O        -9.3534033510        0.7300823161       -7.5051404448
 C        -8.9909958456        1.4693759269       -4.8334529249
 C        -7.7777082416        3.5602186007       -5.8440189163
 H         0.4057771232       -9.8155858605        6.0515918561
 H        -1.0364409812       -9.3543016323        6.7615460009
 H        -0.7450307742       -9.8246421310        4.8602962571
 H        -0.0125296897       -4.6988692480        4.3055054311
 H        -0.9894262157       -4.9690230408        5.6630912420
 H        -1.2354816481       -6.8895028052        7.5468185128
 H         0.2468878971       -6.3048155160        8.4654885775
 H        -0.1137238923       -7.9468510434        8.1900210760
 H         2.7773441948       -7.5609014659        6.0329285448
 H         2.4519084487       -7.0694872055        7.8368914137
 H         1.9001029164       -8.5925054053        7.3266099162
 H        -0.1056823705       -2.6760261053        6.6265175496
 H         1.2599597210       -2.7105928760        5.4623275133
 H        -0.3656730547        0.1182300459        2.8452145591
 H        -1.7916647918       -0.4645532536        1.8868402374
 H        -3.0973166990       -0.6609640801        6.3686217700
 H        -1.8474667963       -1.8436996051        6.8682138405
 H        -3.0545620594       -2.3802999524        5.7528463106
 H         0.2675268433       -0.8600652720        6.5260057928
 H         0.1532861850        0.3414069816        5.1601772985
 H        -0.9216367415        0.4791229513        6.6277757756
 H        -1.2150035983        2.3407681036        2.9940957897
 H        -2.7850124495        2.0892322960        2.2358721345
 H         0.1380235607        6.2213557940       -0.0424484094
 H        -0.3083192833        5.5599648037        1.5314317405
 H        -0.6488617511        2.0482939204       -1.7156706481
 H        -1.9098935487        3.2494056117       -1.9893793113
 H        -2.4226156865        1.9548005105       -1.0121660176
 H        -3.3359592976        3.3767443173        0.7918413706
 H        -2.3882640306        4.5669747181        1.4106387175
 H        -2.8593459223        4.7357629547       -0.2618329830
 H         2.3739484549        5.1897267081        0.3017517598
 H         2.0976104422        6.4529453369        1.4578815812
 H         5.6815079228        2.6638024140        3.9100249854
 H         4.0928191246        1.8604614012        3.6302361726
 H         3.9532293027        6.4973659605        2.8317153675
 H         4.2645812278        6.2121246391        4.5592670781
 H         2.7156835933        6.8380675272        4.0218802076
 H         2.0658804140        4.3947683256        5.3351950220
 H         2.4127566771        2.8871465223        4.5740801695
 H         3.6614981596        3.8422095312        5.4404063811
 H         6.3248096982        0.8402979532        2.4873415138
 H         6.3453566340        2.1850257618        1.4965212433
 H         5.7587707551        0.9829178991       -2.0852190262
 H         6.3512002888       -0.6565574456       -2.5187368947
 H         7.1814428722       -0.3198344191       -0.4556384515
 H         6.7038504545       -1.9805574945        0.1790404760
 H         7.1181668985       -0.5190695539        1.2176024326
 H         4.4271874501       -2.5481791663        0.7545690883
 H         4.4304789466       -1.5384475845        2.1827798004
 H         3.1973361747       -1.2346925808        0.9895606569
 H         5.3890997632        0.4907356928       -4.4457429941
 H         4.5531509991       -0.9490465535       -4.0621986909
 H        -0.2797228984       -0.1918432544       -5.8308899099
 H         0.4111533327       -1.4233795594       -5.0824642317
 H         2.0930990458        3.0001995545       -4.2034936673
 H         0.7691289619        2.5610064020       -5.1985407584
 H         2.3395873443        2.6837835479       -5.8892094430
 H         1.9623411785        0.2245011922       -6.7370004581
 H         3.6611885030        0.2499086003       -6.1633651585
 H         2.5916355244       -0.9880494622       -5.6844629306
 H        -1.9717826241        0.2894612106       -4.1895797211
 H        -1.1095443969       -0.9385739578       -3.1293991822
 H        -4.3483826006        0.0114028559       -5.9819756190
 H        -4.9043946207       -1.6182238999       -6.3569873039
 H        -3.3068373981       -4.1514442801       -5.3077553017
 H        -5.0050959125       -3.6535554411       -4.8341265123
 H        -3.9732908153       -4.4592603973       -3.7702155255
 H        -2.9884719177       -1.6358454426       -1.9454716246
 H        -4.1899270071       -2.8607979365       -2.0000846211
 H        -2.5421147660       -3.4474718847       -2.3942788231
 H        -6.6992209769       -0.2938857411       -6.8558395543
 H        -7.0691917707       -0.7480223528       -5.0611584584
 H        -6.4169293544        1.5373788093       -8.2763042873
 H        -7.9043629103        1.6455486414       -9.4490376540
 H        -7.4359631896        3.0165864910       -8.4700232036
 H        -8.7778488706        1.9580098341       -3.8289353385
 H        -8.9626654627        0.3296390630       -4.6855730205
 H        -9.9757490577        1.8269378748       -5.1086772958
 H        -8.4104986196        4.0064927217       -6.5419961996
 H        -8.2575250181        3.8104610414       -4.9195985739
 H        -6.7998954746        3.8503724799       -6.0206035905
 Na        1.9500390369        1.1849122740       -0.7324059797
