155

 C         0.9099142596        5.7511895318       -5.2861057444
 C         1.8398590782        4.4566938885       -5.3190827922
 C         3.4204000467        4.4563321696       -5.3676789678
 C         3.8659748500        3.1298777324       -4.5937778703
 C         3.1123460321        1.8104949645       -4.8565241531
 C         3.8881656126        4.3014693818       -6.8083716793
 C         4.1282453539        5.7402957105       -4.7702192841
 O         1.2643679569        3.3724800161       -5.3588696469
 O         4.9675374597        3.1330298401       -4.0780115263
 C         4.0492212672        0.5659512688       -4.5793055716
 C         3.5648392410       -0.8098040332       -5.5026225723
 C         3.1096756836       -2.2423856787       -4.8873996453
 C         1.5665086078       -2.3578380146       -4.8973860574
 C         0.9014626563       -2.6907883110       -6.1544861229
 O         3.4096779618       -0.6522242368       -6.6883605985
 O         0.8543591592       -1.9220159497       -3.9995522880
 C         3.6998848771       -3.2530284900       -5.8625183338
 C         3.8900036683       -2.5786429060       -3.5282943621
 C        -0.6678194397       -2.6211177769       -6.2623472064
 C        -1.1739586889       -4.0663177632       -6.3578110123
 C        -2.0294653442       -4.5859332175       -7.6879973865
 C        -3.6456306616       -4.3239183946       -7.2308660173
 C        -4.4210717753       -5.0772499424       -6.2344943757
 C        -1.5671430917       -3.8896548324       -8.9764966549
 C        -1.8457107955       -6.0789469512       -7.8697948591
 O        -1.1163545991       -4.8256966261       -5.3601874268
 O        -4.2836359139       -3.5043992690       -7.8527092965
 C        -5.1540993883       -4.1503024303       -5.2607178504
 C        -4.2754173188       -3.5506202014       -4.1503387914
 C        -4.9350416451       -2.8824911247       -2.9412792817
 C        -4.0320019797       -3.2585372134       -1.5279372983
 C        -3.4957592601       -4.7435491333       -1.5265048324
 O        -3.0803174563       -3.3115799371       -4.4170716021
 O        -4.0672785853       -2.6275268038       -0.4909903480
 C        -4.9313325223       -1.3234873004       -3.2975225484
 C        -6.2110415600       -3.6301153901       -2.5361171639
 C        -2.5218549846       -5.1941935977       -0.4879194232
 C        -1.0780188881       -4.7123292105       -0.7075800787
 C        -0.1139778372       -4.7629841946        0.5337232589
 C        -0.9494741115       -4.5402013119        1.8640595901
 C        -0.8082087155       -3.3054524299        2.7932796011
 C         0.3004360677       -6.3301341623        0.4235772203
 C         1.1333997131       -3.9111252246        0.3266081008
 O        -0.7005932033       -4.1494263210       -1.6902249181
 O        -1.7491685676       -5.3915624636        2.2653524663
 C        -1.6090264635       -2.0767776590        2.3996732592
 C        -0.6410692425       -0.8403676556        1.9276471900
 C        -1.0800854098        0.5807407228        2.4135301377
 C         0.1676907214        1.1702876765        3.1970458912
 C         0.6084238473        2.6408398523        2.9997998175
 O         0.3464898738       -1.0968861327        1.2742675864
 O         0.8043574214        0.4237166989        3.8782753076
 C        -1.5480344852        1.4590422866        1.1523963730
 C        -2.1890628720        0.7395600140        3.6858146325
 C         1.5940552408        3.2123459661        3.8974988863
 C         0.8963418064        4.0214283296        4.9558244232
 C         1.7663402251        5.2134586477        5.5107100202
 C         0.9196661205        5.8700827815        6.5778793552
 C         0.5289236698        5.0544454008        7.8251281903
 C         3.2513262001        4.8449429414        6.0527802043
 C         2.0844672057        6.1962264099        4.4037193935
 O        -0.2294810575        3.8773752288        5.3972616502
 O         0.5487838435        6.9941642605        6.4929700805
 C        -0.5234288807        5.6801695521        8.8471217268
 C        -0.3279944996        5.0303982822       10.2296266646
 C        -0.9745284436        5.6951240139       11.3927901956
 C        -1.9859478709        4.7167880596       12.0127491214
 C        -1.2424690112        3.3141655787       12.2075276320
 O         0.4603340449        4.1130131692       10.2939159014
 O        -3.1315678579        5.0258557662       12.3212820038
 C        -0.1123868485        6.2343555964       12.5307522698
 C        -1.9004599644        6.8673270269       10.9078171942
 H         1.7082065816        6.6424056749       -5.3121463360
 H         0.2766447735        5.7524622874       -6.1908087739
 H         0.5889600680        5.8327683616       -4.2296159431
 H         2.2496755991        1.8340692742       -4.1652898452
 H         2.6359506357        1.8299382604       -5.7729308513
 H         4.9161358940        3.9724446194       -6.9950640868
 H         3.8347654531        5.2511215204       -7.1733244924
 H         3.1740605084        3.6410232444       -7.3538729036
 H         4.7398883981        5.3617154592       -4.0295753446
 H         4.5868147000        6.4768884022       -5.3510879452
 H         3.4884285429        6.4133599286       -4.1966277130
 H         5.1322998034        0.7055121650       -4.6367612768
 H         3.8166394443        0.3860924897       -3.5164470571
 H         1.3704861539       -2.0908521520       -6.9246603319
 H         1.2257971692       -3.6953771873       -6.4735789950
 H         3.2643483683       -4.1769568506       -5.6068483969
 H         4.7664574338       -3.4616440911       -5.6668601266
 H         3.4941902554       -2.9964887753       -6.9153012361
 H         3.3828209858       -2.1170644730       -2.6565610071
 H         3.9936097717       -3.5107597891       -3.0747351234
 H         4.7990404147       -2.0981658922       -3.5942731033
 H        -1.0509505533       -2.0235388391       -7.1373297100
 H        -0.9600004857       -2.2494627481       -5.3209247185
 H        -5.2437427907       -5.5760556010       -6.8196532977
 H        -3.9600443531       -5.9287261164       -5.7566682857
 H        -0.5393289361       -4.1566362860       -9.3003251747
 H        -1.5164669065       -2.7608060635       -9.0718634233
 H        -2.2303343188       -4.1857831747       -9.7390830587
 H        -2.5911854545       -6.4937552972       -8.5575912741
 H        -0.8267517520       -6.3009763962       -8.3060491660
 H        -2.0699097924       -6.6572701412       -6.9644442878
 H        -5.3686357281       -3.2033997821       -5.8183147173
 H        -5.9855565414       -4.6695820428       -4.8694770313
 H        -4.5248446279       -5.2281445293       -1.4284538094
 H        -3.0459339173       -5.0428513297       -2.4355551494
 H        -5.8767950115       -0.9257285440       -3.7648493786
 H        -4.2030166337       -1.1528249058       -4.0636856974
 H        -4.6693257441       -0.6723309416       -2.3975232992
 H        -5.9918294029       -4.6623612443       -2.6829269693
 H        -6.4873108599       -3.4300549286       -1.4768193482
 H        -7.1260686217       -3.4428189131       -3.0320312046
 H        -2.3383086697       -6.2188078924       -0.3726615878
 H        -2.7054739128       -4.9316242600        0.6097491575
 H        -1.2227268203       -3.7002445882        3.6829164059
 H         0.1964560128       -3.1604125105        3.1294998288
 H        -0.6442253234       -6.9621283058        0.5774462428
 H         1.0877434954       -6.5496464309        1.2063929847
 H         0.7861553594       -6.3278397949       -0.5668081530
 H         1.2187127115       -3.2561690103        1.1494573020
 H         2.0174683091       -4.5252414820        0.0477198636
 H         0.9146662940       -3.2287339145       -0.5065832367
 H        -2.1921049556       -2.4487476100        1.5595886249
 H        -2.3069675935       -1.7964796428        3.2097550019
 H         0.8316701461        2.8311204678        1.9893389594
 H        -0.3144687163        3.1465051313        3.2769648076
 H        -0.9314349146        1.4047990830        0.3218579281
 H        -1.4333402904        2.4100460297        1.5152013341
 H        -2.5865569755        1.3078101992        0.8630208134
 H        -1.8891759827        0.3705538097        4.6476438984
 H        -2.5885839551        1.7880229191        3.9462327228
 H        -3.2233952064        0.3293818617        3.6010681485
 H         2.4144362657        3.7202378904        3.3335642208
 H         2.1764711270        2.3932645866        4.4001291087
 H         0.0534466676        4.1372988340        7.3613358103
 H         1.3172630769        4.7258107698        8.5473242766
 H         3.9931795665        5.3246706408        5.4976194748
 H         3.4947888423        3.7972016123        5.9943463807
 H         3.1794639688        5.3031543654        7.1520482252
 H         1.1848601145        6.4599665085        3.9695184102
 H         2.4104693981        7.0614380391        5.0526691673
 H         2.8285325542        5.6539803842        3.8400971622
 H        -0.3541516105        6.7715075039        8.8904196951
 H        -1.5732027905        5.6246518384        8.3950053086
 H        -1.2998341836        2.8153364246       11.2238848476
 H        -0.1447574485        3.4010812200       12.4031225741
 H        -1.8444489488        2.7294210173       12.9010120855
 H        -0.7880672246        6.7666528004       13.1300457667
 H         0.7602182285        6.8467091300       12.0478458180
 H         0.2691835728        5.3825639826       13.0464000328
 H        -1.3744314185        7.8465259548       10.9146697199
 H        -2.4279630731        6.6091857683        9.9696200103
 H        -2.6635727521        7.2056724642       11.7296205016
 Na       -0.8553015316       -3.1958991164       -3.7518049428
