155

 C         0.9329339397        5.8341076909       -5.0530605382
 C         1.7919703347        4.5328200463       -5.3816312429
 C         3.3547994366        4.4832203315       -5.1455490267
 C         3.9161998252        3.0339833822       -4.7673552141
 C         3.2213498681        1.8138293506       -5.3927383067
 C         3.9005249725        4.5902355987       -6.5880297932
 C         4.0177328831        5.4843224588       -4.1383634489
 O         1.3223277627        3.6415460325       -6.0454582820
 O         4.9675148637        2.9617422767       -4.2404893938
 C         4.0087993421        0.5666780251       -4.9430583323
 C         3.2650497147       -0.6840486534       -5.7299044008
 C         3.0610688255       -2.0887004240       -5.0018160630
 C         1.6139100136       -2.3788726562       -5.2066405912
 C         1.0628611446       -2.8627334243       -6.5796637293
 O         2.9990437650       -0.5054174767       -6.8959373552
 O         0.8410825363       -2.3752807639       -4.2407184508
 C         3.9794824072       -2.9037271099       -5.8948569107
 C         3.5956779114       -2.1910048816       -3.6223033329
 C        -0.5045758731       -2.6578661490       -6.5676750326
 C        -1.2809646465       -3.9312531880       -6.3620150629
 C        -2.1330669869       -4.6232876041       -7.4955686060
 C        -3.6470961239       -4.3984130372       -7.1776085474
 C        -4.3598711953       -5.2826720482       -6.0804503423
 C        -1.9113196538       -4.1615418789       -8.9558055853
 C        -1.7335685042       -6.1022103549       -7.5529984811
 O        -1.3713482303       -4.5335287953       -5.2692916674
 O        -4.2663519777       -3.5057789759       -7.6892768020
 C        -5.3337552665       -4.4618817707       -5.2137745195
 C        -4.5997919861       -3.4584811041       -4.2718245527
 C        -5.2437846852       -3.0589947075       -2.8812784763
 C        -4.1108188617       -3.6460774554       -1.8812814281
 C        -3.8697246680       -5.0692629117       -1.6303605889
 O        -3.5406318444       -2.8350222233       -4.5153821117
 O        -3.2651255900       -2.8295651905       -1.4607947809
 C        -5.0566248985       -1.4922890621       -2.9218366546
 C        -6.6672233186       -3.5124252269       -2.6566238210
 C        -2.8497802016       -5.3101447274       -0.3949746868
 C        -1.4833623419       -4.5931158186       -0.4484639714
 C        -0.3661640650       -4.9354641291        0.6495363954
 C        -0.8742686172       -4.5667045471        2.2384124787
 C        -0.4737883069       -3.3405748863        3.0544957690
 C         0.0544395410       -6.4159708302        0.5455227540
 C         0.8884295233       -4.0519524824        0.2171117967
 O        -1.0986625877       -3.8210038574       -1.2715362129
 O        -1.7808641511       -5.3246341711        2.5377081762
 C        -1.4629231749       -2.2661446675        2.9011704672
 C        -0.7551634104       -0.9503888147        2.4426656224
 C        -1.1486620523        0.4892100225        2.8774727082
 C         0.2999130988        1.0897281541        3.3167840121
 C         0.9868298964        2.2746102618        2.5739000558
 O         0.1668132435       -0.9656524476        1.6200852595
 O         0.7980843264        0.7333703886        4.3890233813
 C        -1.7552924810        1.0815700901        1.5802032716
 C        -2.0788916606        0.5786047605        4.0434624777
 C         1.7626654007        3.2114326438        3.4718497498
 C         0.9377911417        4.0499343372        4.4057852573
 C         1.7197769773        5.2350345936        5.3369351301
 C         0.9220681309        6.0670164824        6.4568680338
 C         0.2479546553        5.2338000217        7.5577329995
 C         3.1980278753        4.9225342796        5.9808951524
 C         2.0626457820        6.3391743843        4.2266597033
 O        -0.2431917535        3.9059615161        4.6392738825
 O         0.8034597067        7.2957692957        6.4010804129
 C         0.0254525672        5.9379190167        8.8707917779
 C         0.1984385977        5.1292670552       10.1737988407
 C        -0.4654433878        5.6655090009       11.5543099256
 C        -1.4522796791        4.5167879425       11.8544867123
 C        -1.0783800685        3.4465298320       12.8984843965
 O         0.7291404367        4.0182095381       10.2080871038
 O        -2.5837894011        4.6988209629       11.4798990075
 C         0.8167218974        5.5742928475       12.5606572638
 C        -1.2855672586        7.0530091294       11.7301342589
 H         1.5471433612        6.7202118803       -5.4000855692
 H        -0.0027092071        5.7528988476       -5.5839978560
 H         0.9714731486        5.9069919027       -3.9249191073
 H         2.2439436760        1.7588002305       -4.9922418776
 H         3.1024199971        1.9953219027       -6.4217070458
 H         5.0065097884        4.9632687077       -6.6769462015
 H         3.3640605845        5.3851930312       -7.0479123156
 H         3.7811019779        3.6742612566       -7.1704555621
 H         5.0456868716        5.6754589150       -4.5189932443
 H         3.6441760205        6.5490705184       -4.0075437591
 H         4.1617221316        5.0557273438       -3.0990442823
 H         5.0736466698        0.6985780406       -5.1741677882
 H         3.8953620834        0.5600769250       -3.8176270224
 H         1.3980256920       -2.3342901721       -7.4444759214
 H         1.2316542182       -3.9363699017       -6.7699824269
 H         3.6754718601       -3.9390102970       -5.6285383346
 H         4.9983076207       -2.6948036299       -5.7261296611
 H         3.7419712960       -2.7020232388       -6.9871433160
 H         3.3216753061       -1.4498970523       -2.7632482503
 H         3.6271570688       -3.1307831362       -3.1016669870
 H         4.6541202687       -2.0607975063       -3.7219518309
 H        -0.8116667611       -2.3164610296       -7.6121235643
 H        -0.7030806155       -2.0573733870       -5.7572829264
 H        -4.8173062589       -6.2162834893       -6.4685436774
 H        -3.5924952956       -5.7618639162       -5.4638269762
 H        -2.7817460255       -3.7008840990       -9.5197688735
 H        -1.3282651616       -4.7721991383       -9.6249182073
 H        -1.2605719148       -3.2983945310       -8.9152971629
 H        -2.5210728801       -6.7680353759       -7.9612496249
 H        -0.7454218485       -6.2107662141       -7.9925341256
 H        -1.5566883259       -6.4791785703       -6.5931132555
 H        -5.9400381791       -3.8450671931       -5.8890519316
 H        -5.8662865201       -5.0853427311       -4.5823569100
 H        -4.5982968829       -5.8212556015       -1.2841630866
 H        -3.4160361567       -5.5507639432       -2.4561717587
 H        -5.2485894829       -1.1162220542       -3.8734416768
 H        -4.0457019912       -1.1091490029       -2.6615780982
 H        -5.7349753714       -1.0321175531       -2.2185786159
 H        -6.7463397488       -4.5807156613       -2.5385111091
 H        -7.0586698430       -3.1945169058       -1.7142383365
 H        -7.3787694571       -3.0770933592       -3.3283408886
 H        -2.6919744254       -6.3469606421       -0.3621428741
 H        -3.3020712203       -5.1249163502        0.6776935067
 H        -0.3965588885       -3.5708233951        4.0790192446
 H         0.4730562236       -3.0108097978        2.7022057796
 H        -0.9091926695       -6.9901675014        0.6732923290
 H         0.7330013387       -6.6358054076        1.3910513197
 H         0.5337329278       -6.4810798750       -0.4466251345
 H         0.8812822765       -3.1419469703        0.7514515751
 H         1.7895781089       -4.6123624024        0.3880436556
 H         0.9742079295       -3.8882891447       -0.8621057041
 H        -2.2968516336       -2.4190649585        2.1776020514
 H        -2.1042114962       -2.2555780415        3.8142488587
 H         1.6362719384        1.8849957706        1.8576785451
 H         0.3223736959        3.0383134344        2.0747326928
 H        -1.1377219294        1.5189089549        0.9083161026
 H        -2.4171235712        1.7806098227        1.9708726018
 H        -2.4416751223        0.3803466108        1.1008538581
 H        -1.7487735126       -0.0379907952        4.8173537427
 H        -2.2379630107        1.6144975315        4.4944457607
 H        -3.0642861722        0.1434961523        4.0192942412
 H         2.4012960434        3.8157529282        2.8301403277
 H         2.4217200083        2.6871132597        4.1508222142
 H        -0.8000291888        4.9612771207        7.2480536066
 H         0.8434774121        4.3031533839        7.7882566361
 H         3.2739362549        3.9876490696        6.3552212924
 H         3.2404825578        5.5497738582        6.8575022675
 H         3.9308510363        4.9580892301        5.0960903127
 H         2.4595352428        5.6575947335        3.4357736848
 H         1.1073088070        6.8792132150        3.9364023364
 H         2.8504018722        6.9296239912        4.7325730667
 H         0.7617635192        6.7285619052        8.9257610434
 H        -0.9220625739        6.5134424467        8.7714360266
 H        -1.8659467605        2.7398989984       13.0246135258
 H        -0.2065366348        2.9676048913       12.6699238483
 H        -0.9172701241        4.0838673882       13.7450044428
 H         0.3886325043        5.5733593957       13.5438325200
 H         1.4177844365        6.5730155125       12.4240392144
 H         1.4352111958        4.7631453174       12.3769399423
 H        -1.1814658583        7.7509568031       10.9138525769
 H        -2.3601829577        6.9025470922       11.5603271222
 H        -1.0143762777        7.4135228496       12.7871695889
 Na       -1.5301647209       -2.6671929532       -3.5107904670
