155

 C         0.7930645441        5.5957082109       -4.2323757333
 C         1.8495293885        5.5646162918       -5.3386027792
 C         3.1806532976        4.6478853752       -5.3012283138
 C         2.9724927818        3.1879529973       -4.8162840239
 C         2.7607447362        2.0153247359       -5.8001760550
 C         3.8520618262        4.6293118067       -6.6361097851
 C         4.2525747784        5.4402014535       -4.3082629708
 O         1.7845239985        6.4472130931       -6.1858380429
 O         2.7131230904        3.0170256617       -3.5826772718
 C         2.9005795970        0.7703539582       -4.9043273493
 C         1.9622361597       -0.3493009220       -5.6778312878
 C         2.0458803036       -1.8526824183       -5.3028371331
 C         0.6656955406       -2.3245038743       -5.7486587890
 C         0.4996334625       -2.8090577265       -7.2377952366
 O         1.0968172549        0.0510056394       -6.5017621291
 O        -0.2843458019       -2.2617870504       -4.9491108644
 C         3.1941504382       -2.5024381093       -6.1393099641
 C         2.2047299898       -2.0601534626       -3.8060203330
 C        -0.8247738177       -3.6265510640       -7.6231409729
 C        -1.4524980789       -4.6029243072       -6.4646937292
 C        -2.8542042685       -5.3677167271       -6.7131504914
 C        -4.0201176331       -4.3759107724       -6.7132096971
 C        -5.3567011431       -5.0819858353       -6.2696191817
 C        -2.8463101315       -5.9008781412       -8.1855737689
 C        -2.9285123381       -6.5096436987       -5.7697381981
 O        -0.9214605661       -4.7428781918       -5.3717761131
 O        -3.7672982322       -3.1773856174       -6.8690389275
 C        -5.9598070473       -4.3855215212       -5.0602718507
 C        -4.9142044403       -3.9602453833       -3.9174248848
 C        -5.4392060592       -3.0894205590       -2.7404045537
 C        -4.2269834514       -2.3058571465       -1.9177173448
 C        -4.2509365500       -2.3706061070       -0.3739811708
 O        -3.7541764068       -4.0523041431       -4.0907630878
 O        -3.3328867759       -1.6277272872       -2.4276287933
 C        -6.2508039523       -1.9010145201       -3.3626114812
 C        -6.2165494017       -4.1155517174       -1.7042183365
 C        -2.8566822555       -2.7172320689        0.2668025476
 C        -1.9900662790       -3.8261424978       -0.3220187914
 C        -1.4761137846       -4.8121802195        0.8123145030
 C        -0.6384206513       -3.8476393654        1.7994484398
 C         0.0473198378       -2.5153237106        1.5018747457
 C        -2.7440612294       -5.4703718271        1.4927516912
 C        -0.6054253121       -5.9440796757        0.3061535732
 O        -1.5970249694       -3.8896974518       -1.4743653133
 O        -0.5966174304       -4.3181988725        2.9341372032
 C         0.4494540565       -1.6931199290        2.8486306162
 C        -0.7604415678       -0.7082232569        3.0450947278
 C        -1.0526677641       -0.2348147058        4.4784138194
 C        -0.0825553025        0.9791836372        4.7971397810
 C         0.4820957787        1.8064548468        3.6480267247
 O        -1.3357873597       -0.3694809977        2.0559753991
 O         0.2896760683        1.1396189712        5.8629636544
 C        -2.6466879688        0.2592106621        4.8389369541
 C        -0.7937807625       -1.4219646534        5.4471628841
 C         1.6175858669        2.7799715099        4.2004025156
 C         1.1753827097        4.3003460569        4.1482823874
 C         1.9264725415        5.5427818340        4.7409524398
 C         1.3447663055        5.7395825682        6.2531315035
 C         0.6266971235        4.5743007051        6.8050874993
 C         3.4345792110        5.1608300752        4.8823452410
 C         1.6922863505        6.7686304995        3.8330716390
 O         0.0884671490        4.4832325420        3.6173244358
 O         1.5087685168        6.7802666194        6.8617712419
 C         0.7828235887        4.6640731311        8.2842830331
 C         2.2365384462        4.2716547638        8.5727242101
 C         2.5820413118        4.0481825629       10.1113011233
 C         1.3262227634        4.5984817154       11.1216152666
 C         1.0921864810        6.0804382973       11.1034487433
 O         2.9461067792        3.8911959659        7.6628085822
 O         0.5822362884        3.9691903077       11.8034522719
 C         2.9049138661        2.5781105408       10.3987843076
 C         3.8612109383        5.0237813929       10.7314110271
 H        -0.0907950013        6.0492656645       -4.7726392392
 H         0.7642578030        4.6977453950       -3.7125399846
 H         1.0410945027        6.3783835320       -3.4470215412
 H         1.8080130231        2.1053854370       -6.2357987777
 H         3.4452216846        1.9817256781       -6.6273394892
 H         4.8727019311        4.4519344113       -6.6276207051
 H         3.6206006797        5.4815740040       -7.2906149700
 H         3.5241301142        3.7189389700       -7.2382356475
 H         4.6450708389        6.3219415345       -4.8354746581
 H         3.6688350829        5.8428978033       -3.5320832169
 H         5.0934201952        4.9294414362       -3.8840175908
 H         4.0200897674        0.5094582840       -4.8214283968
 H         2.4058456204        0.9399912568       -3.9785568475
 H         0.5332938381       -1.8458516016       -7.8383945056
 H         1.2874928334       -3.4565418777       -7.4904500621
 H         3.2011821566       -3.6323575273       -6.2198868211
 H         4.1498634168       -2.1703841920       -5.9156674065
 H         2.9124532087       -2.1549804241       -7.0913203632
 H         1.4894992298       -1.5656320190       -3.2265882272
 H         2.3797849711       -3.1650192220       -3.6525286014
 H         3.0826426173       -1.4173168410       -3.5556241260
 H        -0.4352225686       -4.2417309105       -8.5493321655
 H        -1.6197723123       -2.9546290805       -7.8596004171
 H        -6.0900283984       -5.2542536759       -7.1122278710
 H        -5.1347908183       -6.1191131142       -6.0460452396
 H        -2.3342987004       -6.8393489924       -8.1265546413
 H        -2.5357104541       -5.2109843482       -8.9020645544
 H        -3.8795889838       -6.1011382797       -8.4152117650
 H        -3.4364938979       -7.4205980002       -6.1942707663
 H        -1.8996827966       -6.9359144009       -5.8295885838
 H        -3.1369089258       -6.1595444388       -4.7519918692
 H        -6.6416409462       -3.5505174564       -5.3334240032
 H        -6.5926706387       -5.0833204171       -4.5580030558
 H        -4.3886126936       -1.2947176261       -0.0390205387
 H        -4.9957536958       -3.0568652098       -0.0197729149
 H        -6.9044392874       -2.1625247141       -4.2394672448
 H        -5.5125692500       -1.1509694466       -3.7242675415
 H        -6.7970050580       -1.4852287674       -2.4982127447
 H        -5.5748954712       -4.9761061125       -1.4893330491
 H        -6.5613407309       -3.5983824523       -0.8481745157
 H        -7.1094809119       -4.4629992346       -2.2151171523
 H        -3.1781947404       -2.9376199255        1.3733317111
 H        -2.3997736516       -1.6991803370        0.1280904209
 H         0.8347943164       -2.7238660485        0.7414062456
 H        -0.5618892333       -1.8315458579        0.8477916132
 H        -3.7297709786       -5.2834001452        1.0027031719
 H        -2.8601697442       -5.4330173525        2.6182874227
 H        -2.7617221948       -6.5956562427        1.2719689969
 H        -0.0018292588       -6.3040318649        1.1878694926
 H        -1.2056667165       -6.7122013891       -0.0628264515
 H         0.1026941522       -5.7050312404       -0.4768079826
 H         0.7032768694       -2.4078999860        3.6458148614
 H         1.3159860390       -1.0035882459        2.7271839867
 H         0.9768100778        1.2560478549        2.7673100329
 H        -0.4101532519        2.5148529621        3.2552027399
 H        -3.0865158169        1.1590495743        4.4518316347
 H        -2.5669627387        0.3847211704        5.9252385246
 H        -3.3358547301       -0.5626946066        4.6755712808
 H         0.3097161823       -1.6186764633        5.5725036257
 H        -0.9586754938       -1.1143609480        6.4609763399
 H        -1.2127133619       -2.4046596613        5.1119925837
 H         2.5941505516        2.5816269135        3.6830820998
 H         1.8869894589        2.4444010512        5.2013956901
 H        -0.4183961437        4.6663390300        6.5745579957
 H         1.0975853282        3.6381849022        6.4759088323
 H         3.6123413272        4.6590294921        3.9891915022
 H         3.7327131644        4.7346771701        5.8097504641
 H         3.9035276381        6.1946524518        5.1261956698
 H         1.2707679562        7.5522762221        4.5113080601
 H         2.5648418794        7.1787368957        3.3904181136
 H         0.9222097279        6.5650396186        3.0620910101
 H         0.5225810460        5.7262608409        8.3821979992
 H         0.1123916225        4.0215809367        8.8993237933
 H         0.1332375882        6.2604734817       11.6773016515
 H         2.0905161746        6.5867283363       11.3788740349
 H         0.9536282099        6.4240997224       10.0630793166
 H         2.7527902422        2.4101805772       11.5090656195
 H         3.9664945700        2.2703614660       10.3830618718
 H         2.2476614281        1.8741799443        9.9498913635
 H         4.8224118626        4.5558284871       10.6888486639
 H         4.0185189252        5.8988049512        9.9958630467
 H         3.6032167985        5.3276806174       11.6850884295
 Na       -1.8567060916       -2.7906444376       -3.7353507337
