155

 C         1.1894826295        5.9340388411       -3.9051204750
 C         1.9299020623        5.9110622552       -5.1685939755
 C         3.1885644873        4.9639393295       -5.2236060665
 C         2.7320582798        3.4260723692       -5.0047438589
 C         2.9960243836        2.4355547503       -6.1223825358
 C         4.0819146972        5.3477364177       -6.3832003916
 C         4.0007028019        5.1366744443       -3.8679388637
 O         1.5667858732        6.5019173937       -6.1913950176
 O         2.2183804437        3.1543167801       -3.9915764954
 C         2.9711865241        1.0317665158       -5.6484298414
 C         1.7970143805        0.0287881062       -6.0863667076
 C         1.8446757034       -1.4669899441       -5.4079239558
 C         0.4840542333       -2.2557119316       -5.6778012280
 C         0.5245810758       -3.2285254334       -6.9441224868
 O         0.9726003732        0.2549920776       -6.9943229292
 O        -0.4653608298       -2.2150683817       -4.8830195355
 C         3.1470353308       -2.1355125721       -5.9446084091
 C         2.0377149460       -1.3232695408       -3.8329409284
 C        -0.7852613085       -3.9102594390       -7.4140482251
 C        -1.4986019961       -4.7073440621       -6.2968011489
 C        -2.8328013268       -5.6427358816       -6.5332349664
 C        -3.8898980482       -4.6090217217       -5.9867481074
 C        -5.4456042665       -4.7703239291       -6.2549634085
 C        -2.9949665102       -6.0317323773       -8.0130763312
 C        -2.8975256994       -6.8711102166       -5.6252429102
 O        -0.9832903872       -5.0621069130       -5.2659755531
 O        -3.5247906518       -3.5919775488       -5.4413517673
 C        -6.0499867034       -3.7537793606       -5.1482876948
 C        -5.5166485368       -3.9784365966       -3.7059154257
 C        -5.9835193732       -2.8528655696       -2.7194964020
 C        -4.6997783241       -2.2897643421       -2.0767944308
 C        -4.5797853116       -2.4615423834       -0.5753347849
 O        -4.8086572830       -4.9454424656       -3.4090316716
 O        -3.8434788107       -1.8449089333       -2.7463033380
 C        -6.7509959016       -1.7549946195       -3.4129975837
 C        -7.0981017073       -3.5208189275       -1.7710168300
 C        -3.1046571147       -2.4230616200        0.0562890515
 C        -2.1263904621       -3.6377925296       -0.1978762465
 C        -1.6549646517       -4.5040979723        0.9434052517
 C        -0.6307610125       -3.7092587511        1.8043303001
 C         0.3053682416       -2.5768877798        1.2605654461
 C        -2.9072221526       -4.6821118301        1.8496992314
 C        -0.8960397098       -5.7685874099        0.5034623410
 O        -1.7059541082       -3.7245718400       -1.3786566990
 O        -0.5287591866       -3.9386808835        2.9943198228
 C         0.4455501833       -1.6360654739        2.4661845695
 C        -0.8367262370       -1.0057864028        3.0899014760
 C        -0.5935011243       -0.4086754240        4.4936286757
 C         0.3391312744        0.9378985670        4.4302824797
 C         0.5941036907        1.7717167520        3.1631575871
 O        -1.9273446213       -1.0135886815        2.5062111199
 O         0.9122287494        1.2141857249        5.4501308370
 C        -1.9618449355        0.1261842432        4.9068791673
 C        -0.2246084575       -1.4165129199        5.5635177722
 C         1.6115286121        2.8906204649        3.3467414182
 C         1.0415699589        4.2099350890        3.9338504890
 C         1.8547030522        5.3336722077        4.5645836540
 C         1.4801805554        5.3384431922        6.1268354290
 C         0.8465700535        4.1281403702        6.9133483896
 C         3.3258279894        5.1825463386        4.2961030143
 C         1.2703583904        6.6134495497        3.8832577418
 O        -0.1658793325        4.3364460051        3.9271012706
 O         1.6768560065        6.3812412618        6.7538080242
 C         1.0337648656        4.3727382064        8.3841927804
 C         2.5959503625        4.1662551389        8.6524152255
 C         3.1775148819        3.9223661633       10.1104284236
 C         2.3749640961        4.8228332091       11.1485830598
 C         2.9906039649        6.2625010189       11.2997253504
 O         3.3293918472        4.0015938339        7.6915034628
 O         1.2822335387        4.4520833428       11.5412123930
 C         2.7265162824        2.4098508439       10.5232091490
 C         4.7129359162        4.0700142428        9.8758573015
 H         1.7473325292        6.3630453850       -2.9814381790
 H         0.2189544047        6.4467740332       -4.0963233881
 H         0.9358552016        4.8904858074       -3.6918051219
 H         2.3465830812        2.7849047301       -6.9966723887
 H         4.0381548002        2.5302117977       -6.3432933304
 H         5.1426191953        5.1454681880       -6.3978293768
 H         3.8997290473        6.4761895846       -6.6760866644
 H         3.6812562228        4.8402284403       -7.2617359257
 H         4.3257715592        6.2108952555       -3.6809425431
 H         3.4420808616        4.8109164005       -2.9385180435
 H         4.8434540016        4.4927509230       -3.7979275107
 H         3.8650370057        0.5619035978       -5.9491197192
 H         2.9127481561        1.1054584719       -4.5129378773
 H         1.0907859314       -2.7592549858       -7.7138825232
 H         1.2451837291       -4.0343882503       -6.5072471599
 H         3.1343374314       -3.2086617062       -5.7635550929
 H         3.9796739264       -1.7526273118       -5.3964448459
 H         3.4159408234       -1.8701263779       -7.0346137104
 H         1.0125871482       -1.4557865216       -3.4339353753
 H         2.6710285070       -2.1054076350       -3.2434162885
 H         2.4644442740       -0.2897075503       -3.6628300041
 H        -0.5454597088       -4.5928680808       -8.2312811859
 H        -1.2362398133       -2.9680427464       -7.7631850758
 H        -5.8065904861       -4.5521965777       -7.2875531049
 H        -5.7068665212       -5.8256011317       -6.1619176037
 H        -2.4059225981       -6.9806280734       -8.2442164505
 H        -2.5030099343       -5.3655169696       -8.6421120775
 H        -3.9896327514       -6.2386853746       -8.2099282933
 H        -3.9414179784       -7.0411627683       -5.2897738771
 H        -2.5641306480       -7.8224937058       -6.1744502686
 H        -2.4188285437       -6.6622413466       -4.6906589969
 H        -5.7666957041       -2.8323211527       -5.6112220120
 H        -7.0798840639       -3.8372605216       -5.0328883568
 H        -5.1645393584       -1.6559953886       -0.1086638214
 H        -5.1696815919       -3.3596736133       -0.3007125665
 H        -7.4770741576       -2.2141223964       -4.0242679896
 H        -5.9468605479       -1.1820344891       -3.9992315758
 H        -7.2391331635       -1.0202801897       -2.7000486944
 H        -6.7907987208       -4.4896319159       -1.2652015246
 H        -7.2746817564       -2.7264577264       -1.0808355522
 H        -8.0899352612       -3.5974100951       -2.3183159282
 H        -3.3445100063       -2.1754970750        1.0178902203
 H        -2.5172009960       -1.5243901381       -0.1403282103
 H         1.2933628499       -3.0377273764        1.1907575897
 H        -0.0790183498       -2.1072817139        0.3740673587
 H        -2.9273231943       -4.0854054990        2.8027256734
 H        -3.1696273700       -5.7068466693        2.0839012643
 H        -3.8646752726       -4.4879281092        1.2571423857
 H        -1.1293548525       -5.9208641768       -0.5358247553
 H         0.1432004883       -5.4621092871        0.3381912696
 H        -0.9635586043       -6.6469595876        1.1908370144
 H         1.1410400994       -2.1363665896        3.2186394241
 H         1.0618766874       -0.6725937755        2.2469663113
 H         1.0682200366        1.2368182614        2.4120652641
 H        -0.3187223204        2.2981899923        2.9334183854
 H        -2.1739142299        1.0839301811        4.2900283918
 H        -2.0133564823        0.2962419185        6.0569233192
 H        -2.8131934663       -0.5385440580        4.7210645220
 H         0.7542405014       -1.6692079198        5.2341658722
 H        -0.0875354908       -1.0267402263        6.6091133855
 H        -0.9534323437       -2.1398262032        5.6891887760
 H         2.0743011977        3.0304627390        2.3621053884
 H         2.4490990222        2.5151925267        4.0008432304
 H        -0.2158963184        3.9688292189        6.5873795681
 H         1.4475476911        3.2153725772        6.8466777094
 H         3.5036921296        4.9153202509        3.1980030092
 H         3.6939890862        4.4053938968        4.8833502429
 H         3.7510662280        6.1854134982        4.3368006352
 H         1.5012051636        6.8274218136        2.7794264065
 H         0.1943920987        6.4448172180        3.9249690716
 H         1.5326937034        7.6086861907        4.4284701377
 H         0.7335652691        5.3700542503        8.6930793479
 H         0.4616144452        3.7202485531        8.9478793940
 H         2.1434592126        6.8983766259       11.7358912594
 H         3.8559233254        6.2535905431       12.0449719725
 H         3.3517995341        6.6531234104       10.3217115088
 H         2.7072155844        2.1177845301       11.5945133545
 H         3.1131585758        1.6681975008        9.9532050103
 H         1.6525440254        2.3611861811       10.1416469591
 H         4.9127026958        4.8941654630        9.3156239759
 H         5.4338790763        3.7861983726       10.6789984946
 H         4.9107704875        3.3728344252        9.1210000963
 Na       -2.3073376138       -3.7778823075       -3.6877913402
