155

 C         1.3536174929        6.2401657129       -3.7269789911
 C         1.7320477816        5.7176368570       -5.1346208662
 C         3.0414009879        4.5872849356       -5.1903596038
 C         2.2756585382        3.2090748826       -5.0707214077
 C         1.8813396739        2.5325294235       -6.4761213545
 C         3.8697954448        4.9858868384       -6.4175130264
 C         3.8635457035        4.7304109760       -3.9235571075
 O         1.1439780417        5.9579085646       -6.1607164410
 O         1.9549412076        2.6929595347       -4.0443581856
 C         2.5839448178        1.1608562776       -6.5586132030
 C         1.6826224860        0.0367071786       -6.1447678887
 C         1.8362401246       -0.9138334035       -4.9554659527
 C         0.3762364149       -1.8288941479       -5.2153313495
 C         0.2987571375       -2.9103997163       -6.3366836928
 O         0.6794982555       -0.0498959971       -6.8113952292
 O        -0.6237061916       -1.6078238261       -4.5469785286
 C         3.1923772666       -1.6313311286       -5.0643087436
 C         1.7400120839       -0.3656973113       -3.5292494506
 C        -1.0159381363       -3.4675999434       -6.8868273710
 C        -1.4376101003       -4.6932344292       -6.0398742467
 C        -2.8259566954       -5.4457884874       -6.2498703759
 C        -3.9832342202       -4.5085332651       -5.7291938336
 C        -5.4647709535       -4.9200016322       -5.9308406083
 C        -3.1329635457       -6.0747036447       -7.6404994771
 C        -2.7486424770       -6.5062937742       -5.1220761086
 O        -0.8285226943       -4.9559619394       -5.0330683318
 O        -3.7228896225       -3.5353332250       -5.0002612137
 C        -6.6289795189       -3.9773183749       -5.3985144595
 C        -6.5405998830       -4.0695629790       -3.8604570232
 C        -6.4921492407       -2.6527303162       -2.9036836832
 C        -5.1487502017       -2.4508123358       -2.3660671928
 C        -4.4436235678       -3.5449606032       -1.4297972704
 O        -6.6413357780       -5.1821570469       -3.3403439914
 O        -4.4895506431       -1.5157337397       -2.7225747203
 C        -6.7505602949       -1.4735386461       -3.8101053639
 C        -7.6436723494       -2.8464141851       -1.7441855334
 C        -3.4615184122       -2.8148794709       -0.4015682672
 C        -2.1503804343       -3.7192533440       -0.1614045554
 C        -2.0565595897       -4.6472363691        1.0356408756
 C        -0.9480807088       -4.0470168745        2.1724774035
 C        -0.0131702168       -2.9562776489        1.5048450386
 C        -3.5150003525       -4.8265872981        1.7743992000
 C        -1.4866581746       -6.0555989238        0.6396126256
 O        -1.4683645879       -3.7946788939       -1.1767153423
 O        -0.9387474021       -4.3098737211        3.3288088592
 C         0.7261421714       -2.1495299221        2.6541196390
 C        -0.3573981447       -1.1328276169        3.1076676220
 C        -0.1140961174       -0.2101382897        4.4046511562
 C         0.8771009505        0.9632277609        3.6447510203
 C         0.3216873060        2.1206134173        2.8406801696
 O        -1.2869947812       -0.8608691954        2.4194035587
 O         2.0605248001        0.7581934369        3.5882669089
 C        -1.6034652898        0.2754046145        4.8396620737
 C         0.6132860806       -0.9559779290        5.4969726536
 C         1.3574105734        3.3122871560        2.9789259859
 C         0.7739671065        4.2357017767        4.1149607339
 C         1.5424616781        5.4562513181        4.6588021966
 C         1.4402093480        5.3928118954        6.2043679553
 C         1.3943468013        3.9065298358        6.8135078196
 C         3.0860082980        5.4003760928        4.1166310700
 C         0.9995238998        6.7793466988        4.1469994591
 O        -0.3943824373        4.0592513915        4.3536233048
 O         1.3236337686        6.2988139778        6.9664477048
 C         1.7665443544        4.0200021711        8.2679615315
 C         3.3035895063        3.8472747498        8.5378455211
 C         3.8625881511        3.4360055859        9.9091954179
 C         3.9926637184        4.9390529475       10.5742045692
 C         5.1482207651        5.9579459862       10.3480849189
 O         4.0578482986        4.0450250600        7.5994555394
 O         3.1073871561        5.3166493350       11.2843215186
 C         2.9208273565        2.5799646671       10.8281129083
 C         5.3604788335        2.8728292333        9.9155712445
 H         2.1336499544        6.5789572719       -3.0627750970
 H         0.6437710061        7.1022478005       -3.8633385834
 H         1.0079001116        5.2768948812       -3.2266665818
 H         0.8088178657        2.6596878347       -6.6371155351
 H         2.4443174193        3.1236750085       -7.1426144106
 H         3.1649897008        5.4169073707       -7.0630178689
 H         4.3151757162        4.0891487997       -6.8331795816
 H         4.7268640748        5.6769979628       -6.0816324214
 H         4.3339096823        5.6948857379       -3.6948213860
 H         3.3598479458        4.4818259555       -3.0369179277
 H         4.6930952620        4.0439049116       -4.0036009281
 H         3.1152168392        0.9071573273       -7.4710132539
 H         3.4027936725        1.2522585693       -5.8147983167
 H         0.9854307547       -2.7486216694       -7.1167681787
 H         0.8701290123       -3.7241435571       -5.7830889443
 H         3.4736454427       -2.3101475961       -4.2151355156
 H         3.9314328669       -0.8883160028       -5.0535974360
 H         3.2418106959       -2.2209235769       -5.9356084423
 H         2.7490203770       -0.0224159640       -3.4439742874
 H         0.9419226494        0.3978917855       -3.4574285440
 H         1.5080773158       -1.1919832576       -2.8367302308
 H        -0.5964859925       -3.6373430558       -7.8705491897
 H        -1.7752138413       -2.7414484901       -7.0546375056
 H        -5.6127554335       -4.8557598090       -7.0611503933
 H        -5.6376016772       -5.9292085412       -5.5868903278
 H        -2.3123925774       -6.6990670005       -7.9071838114
 H        -3.4228971731       -5.3436206554       -8.3720217992
 H        -3.9713492529       -6.7638954260       -7.6986808161
 H        -3.6036533098       -7.2210751353       -5.0016093810
 H        -1.8772081936       -7.1075931544       -5.4472065642
 H        -2.3845855151       -6.1325566320       -4.1942138183
 H        -6.5683639344       -3.1132931871       -6.0556485744
 H        -7.5065630258       -4.4431641393       -5.6809627473
 H        -5.2473421545       -4.1789914026       -1.0145543278
 H        -3.9141101700       -4.1760986813       -2.1936018920
 H        -7.6802808784       -1.6880251225       -4.3713449463
 H        -5.9022017148       -1.3864423066       -4.4551931633
 H        -6.8512161436       -0.5593577754       -3.2626160763
 H        -7.5585398676       -3.6629108991       -1.0826319729
 H        -7.6452274572       -1.9476811710       -1.1192837525
 H        -8.5822387089       -2.9879441055       -2.2605051025
 H        -3.9053079427       -2.3821734811        0.5768427408
 H        -3.0871935239       -1.9914909124       -0.8598939672
 H         0.8092938892       -3.5646354413        1.0115813430
 H        -0.5910999284       -2.4041972026        0.7665488782
 H        -3.7502196423       -4.0776515562        2.4930873293
 H        -3.5238328021       -5.8603831353        2.1392960591
 H        -4.2473736942       -4.6728733820        1.0022415021
 H        -0.6265283240       -6.4038036778        1.2775270387
 H        -2.2525260727       -6.7482589036        0.5390093076
 H        -1.1985368854       -5.8909824299       -0.3857856837
 H         1.0112902280       -2.8162089366        3.4466893951
 H         1.6457365208       -1.6023241975        2.3752499978
 H         0.3839568573        1.7907905719        1.7017898347
 H        -0.7043787365        2.5151318549        3.1639943314
 H        -2.1543424290        0.6806085813        4.0720613799
 H        -1.5665567443        1.0579959997        5.4753138548
 H        -2.1116224852       -0.5454171585        5.3102694665
 H         1.5924621480       -1.4032075165        5.1250487193
 H         0.7941252847       -0.1067030452        6.1732417749
 H         0.1394506200       -1.9460970155        5.8139924289
 H         1.4378727388        3.8792929246        2.0805255939
 H         2.3423488899        2.8487940364        3.1849299528
 H         0.3517700953        3.5617178483        6.7182580956
 H         1.9017803136        3.0589328810        6.3396594221
 H         3.1873255507        5.7658752215        3.1610838287
 H         3.5705060491        4.3772855697        4.1580562991
 H         3.7670809218        5.9003112291        4.8720034436
 H         1.2936911792        7.1536954117        3.2023111763
 H        -0.0712703508        6.9024200945        4.2427333739
 H         1.3585002337        7.5519513074        4.8254190677
 H         1.4737500732        5.0925611077        8.5575210814
 H         1.1514914673        3.4365299979        8.9540876569
 H         5.7204805065        5.5457891992        9.5376227162
 H         4.7873627034        6.9150141123        9.9648238387
 H         5.6293218293        6.2262641828       11.2763427687
 H         3.1897402146        2.5484337765       11.8813365868
 H         2.8365335643        1.4304412790       10.6285854292
 H         1.9190700206        2.8540333892       10.7629566889
 H         5.4209435756        1.7899512104       10.2588777270
 H         5.7993715110        2.9578111662        8.8771553849
 H         6.1021016957        3.4744664771       10.3792445143
 Na       -2.0891897352       -3.0424251908       -3.4195710085
