155

 C         1.2121762544        6.1886961051       -3.7100792814
 C         1.6495498097        5.6249975540       -5.1046094321
 C         2.9708789654        4.5783785257       -5.0957929315
 C         2.3390347867        3.1392276388       -5.2263388132
 C         1.7158215550        2.5663407872       -6.5974344896
 C         3.8671472448        4.7412549700       -6.4444432656
 C         3.8389372984        4.7154157818       -3.8258893747
 O         1.0773516785        5.8484629000       -6.1216046659
 O         2.0324162554        2.6039676197       -4.1780391100
 C         2.4213213097        1.1328619144       -6.6858981922
 C         1.4511088110        0.0505361955       -6.2759697697
 C         1.6324782620       -0.8432936769       -5.0170297906
 C         0.4278447773       -1.7616377215       -4.9954158365
 C         0.4047271635       -2.7956175496       -6.1464608406
 O         0.3842022602        0.0171212423       -6.9100570901
 O        -0.4790850921       -1.6818048428       -4.1894006329
 C         2.7700122234       -1.8248234930       -5.1101707641
 C         1.6738323636       -0.0232303049       -3.6605003006
 C        -0.9356104072       -3.4465310527       -6.7040799144
 C        -1.3680468475       -4.4869952620       -5.6995784973
 C        -2.7748174960       -5.3156982984       -5.9587332741
 C        -4.0668917005       -4.4831877143       -5.4398292691
 C        -5.3939524420       -4.9926664810       -5.9819304797
 C        -2.7997137306       -5.6636621092       -7.4313833600
 C        -2.8380901616       -6.5865528047       -5.0886280856
 O        -0.7853467046       -4.6687972333       -4.6300822134
 O        -3.9878629302       -3.4524660154       -4.8447727479
 C        -6.5323176750       -4.0542632852       -5.4174964975
 C        -6.6892433123       -4.0036078552       -3.8899056552
 C        -6.5557144057       -2.6276635180       -3.1418532373
 C        -5.1214472460       -2.3655199122       -2.5455998085
 C        -4.6162195192       -3.5566776938       -1.4206301036
 O        -6.8684334838       -4.9624717119       -3.2327705064
 O        -4.7045288843       -1.2427097104       -2.5059372294
 C        -7.1993978985       -1.4214769658       -3.9791024790
 C        -7.5983545391       -2.7485174690       -1.9541409029
 C        -3.5871200310       -3.1035086957       -0.4065784205
 C        -2.3295779521       -3.9269151826       -0.3248042836
 C        -2.1692999061       -4.7387268732        0.9864878181
 C        -1.1650439559       -4.0380076709        1.9787611877
 C         0.0638249059       -3.1448858003        1.5215285403
 C        -3.4445401096       -5.0887865423        1.9348840914
 C        -1.4031001974       -6.1880152274        0.6139866419
 O        -1.5045477456       -4.0562688372       -1.2586674793
 O        -1.1475750557       -4.4472500859        3.1541867408
 C         0.4194734077       -2.3439549444        2.7156329361
 C        -0.3110529241       -1.0228574837        2.9832344338
 C        -0.0311160707       -0.1337569989        4.2099728051
 C         1.0098804351        0.8959583308        3.4629605904
 C         0.2941681423        2.0543390107        2.7368324977
 O        -1.1941025218       -0.6955168176        2.1850788548
 O         2.1325513609        0.5395678447        3.2091531237
 C        -1.2817502355        0.5783373862        4.8098642130
 C         0.9065803213       -0.6971221396        5.3552342413
 C         1.0836922633        3.3724598371        2.8152332120
 C         0.7203355948        4.2329440743        4.0240464306
 C         1.6087497011        5.4366251560        4.5716309729
 C         1.4598195229        5.1886790092        6.2233384877
 C         1.4943963210        3.8055664151        6.9047805462
 C         3.0992969896        5.5106541457        4.3448360126
 C         0.8068802383        6.7847847417        4.2571567119
 O        -0.3833325502        4.2186154474        4.5552298903
 O         1.2085377831        6.1997844698        6.8233724944
 C         1.9944298057        3.8087337773        8.3370685086
 C         3.5314206486        3.8261473815        8.4601291044
 C         4.0546419232        3.6580473777        9.9565324077
 C         4.3068374198        5.0101676564       10.7207435127
 C         5.5282646055        5.7325955835       10.0304175758
 O         4.2050999609        3.6646705554        7.4651828335
 O         3.6626183395        5.5276274613       11.6007694491
 C         3.1067098591        2.8620685325       10.8022770390
 C         5.4059581179        2.8071946110        9.7600028874
 H         2.0422594788        6.9808954277       -3.5249160233
 H         0.3899178616        6.7911516298       -3.6993386974
 H         1.3989812054        5.4822569947       -2.9000045423
 H         0.5748883283        2.3138063022       -6.5647656327
 H         1.8918975687        3.2958434041       -7.4220475052
 H         3.2097812471        4.6814171276       -7.3239520893
 H         4.5945971823        3.8759605901       -6.3716575301
 H         4.3497154901        5.6698858210       -6.4330242613
 H         4.1150261953        5.7391070461       -3.6184172999
 H         3.2793062399        4.4253903597       -2.8606296803
 H         4.6784242750        4.0377213926       -3.6983777543
 H         2.7281061543        0.8308611906       -7.6916200172
 H         3.3553549218        1.0145825328       -6.1184312758
 H         1.0930808243       -2.2834263777       -6.8697370468
 H         1.0535124464       -3.6501829030       -5.9090671598
 H         2.8546937615       -2.5715614121       -4.3829719943
 H         3.7070802763       -1.2579421885       -5.0214518984
 H         2.7874735853       -2.3370000873       -6.1454378913
 H         2.6771221125        0.3547396528       -3.4853537109
 H         0.7951731812        0.6451680773       -3.8507380830
 H         1.3847183932       -0.7643739304       -2.8361272610
 H        -0.7776111150       -3.7712244871       -7.7683193255
 H        -1.8929851995       -2.8088309565       -6.7257588940
 H        -5.2934743339       -5.1094682774       -7.0252868728
 H        -5.7290685337       -5.9356698055       -5.4673382614
 H        -1.8495253949       -6.2658587373       -7.6086844185
 H        -2.9977153974       -4.8561115380       -8.0726269234
 H        -3.5365579747       -6.3581063890       -7.6851253493
 H        -3.7201256220       -7.1212766968       -5.4654534025
 H        -2.0635772021       -7.3932815561       -5.1882363622
 H        -2.9355816619       -6.3126280094       -4.0105450768
 H        -6.1396455992       -3.0681814744       -5.7060532929
 H        -7.4551117843       -4.1152117376       -6.0799318729
 H        -5.5577897030       -3.8415157015       -0.9472562895
 H        -4.3117577920       -4.3111310818       -2.1603934080
 H        -8.1655419449       -1.7679794028       -4.2485320603
 H        -6.5609498985       -1.0103417218       -4.8196416378
 H        -7.2781895632       -0.5064145982       -3.3322243975
 H        -7.3980980815       -3.6038156946       -1.2613809005
 H        -7.7339219827       -1.8202588206       -1.4467601865
 H        -8.6036688868       -3.0134545963       -2.3364911422
 H        -3.8456644297       -3.0804685171        0.5912408159
 H        -3.2083203100       -1.9789065205       -0.6498050016
 H         0.8559220320       -3.7845404273        1.1914490493
 H        -0.1888514322       -2.4385815607        0.7016778488
 H        -4.0021312305       -4.0856520825        1.9684633110
 H        -3.0812183713       -5.4157475047        2.9134731576
 H        -4.1758497823       -5.8037338674        1.4053297285
 H        -0.7635890740       -6.4886012357        1.3959152512
 H        -2.1361932568       -6.9772977490        0.3054076231
 H        -0.7505297516       -5.9512609307       -0.2329931532
 H         0.3047617871       -2.9380038954        3.6912352573
 H         1.5013810793       -2.0338667492        2.6867778296
 H         0.1132509483        1.7830652926        1.7706792991
 H        -0.6183420705        2.2396055726        3.2249114235
 H        -2.0195024471        1.1668752291        4.2023761539
 H        -0.8844500571        1.4334677871        5.5049304794
 H        -1.7993552935       -0.1162804578        5.5374529834
 H         1.9504351698       -0.6959020185        5.0735200937
 H         0.8981409984        0.0504310056        6.1421357579
 H         0.7412419613       -1.6857399930        5.4662520758
 H         0.9302857724        4.1397817243        1.9794772893
 H         2.1352768522        3.0696570813        2.7865927543
 H         0.5049712482        3.3231991383        6.8718614287
 H         2.0403055891        3.1749461103        6.1628427519
 H         3.2796409466        5.4796526578        3.2067956036
 H         3.6290364617        4.7356149720        4.7355452881
 H         3.6335597679        6.2745762536        4.9063968334
 H        -0.1643157311        6.6537236763        3.7528943675
 H         0.6823285345        7.3969004557        5.1658916413
 H         1.1219074925        7.5762130508        3.4637940306
 H         1.3783906601        4.5003566960        8.7990736412
 H         1.7915389229        2.8472178674        8.8113653120
 H         5.3466619717        5.9365449950        8.9288700020
 H         5.8101752464        6.6601032761       10.5932466702
 H         6.4369279344        5.1135537348       10.2962192891
 H         3.4917816181        2.2852946494       11.6853421349
 H         2.5606651870        2.0779904185       10.5085916642
 H         2.3598865219        3.6316576033       11.1964593434
 H         5.3763728968        1.9998988160        9.0881149998
 H         6.3108465126        3.3372802662        9.4820866854
 H         5.6847404263        2.5437099800       10.7792652192
 Na       -1.7529689560       -3.1106341023       -3.2709138698
