155

 C        -0.0652813270       -9.0933936929        5.9519882253
 C         0.4957753160       -7.7221910240        5.6356920173
 C         0.8974201779       -6.9379923999        6.8354487544
 C         1.3321166764       -5.5038742650        6.3080319731
 C         0.2943430572       -4.5311038523        5.7187869822
 C        -0.3857375717       -6.7849856936        7.8028366410
 C         2.0860421222       -7.5316873541        7.5101858941
 O         0.4714741269       -7.2302967192        4.5192876265
 O         2.4640500175       -5.1724219112        6.3379440329
 C         0.5794943617       -3.0075451751        5.7904579469
 C        -0.4371705466       -2.3064622751        4.8988675662
 C        -1.1743148577       -1.1247119505        5.5092941847
 C        -1.9669327380       -0.3907541662        4.2698686573
 C        -1.1808164481       -0.0392606865        2.9248779155
 O        -0.4295471235       -2.6127155871        3.7402269940
 O        -3.0905089059        0.0576748640        4.4312359089
 C        -2.3645408115       -1.4637950282        6.4048121490
 C        -0.2455269641       -0.1634712848        6.1883670778
 C        -1.7383401502        1.1806388363        2.2607355729
 C        -0.9456410998        1.6137855070        1.0420527795
 C        -1.2909209392        2.9800211149        0.3845316117
 C         0.1347735411        3.6659884290        0.2457277026
 C         0.3235178799        5.1518926323        0.7398260744
 C        -1.9672598883        2.6813218651       -1.0133912261
 C        -2.3364982029        3.7471594425        1.2027488090
 O        -0.1083704376        0.7900014896        0.6495412995
 O         0.9424141582        3.2413318453       -0.5484433282
 C         1.7873907252        5.3939444819        1.1854371538
 C         2.1785723834        4.6082093320        2.4436479144
 C         3.5583066205        4.8220451563        3.0284884708
 C         4.5004604555        3.7752384741        2.1564204432
 C         4.5657390068        2.3093220857        2.7145789754
 O         1.4691950584        3.8195940337        2.9868261712
 O         4.9332855038        4.0048483885        1.0759092427
 C         4.0424356396        6.3005342655        2.7310110799
 C         3.6879584595        4.4681423636        4.5032131915
 C         5.2869261752        1.2299546295        1.7980100345
 C         4.2736121458        0.7353608876        0.7273317477
 C         4.6589959790       -0.6792909290        0.0776529068
 C         3.9693268260       -0.8425610137       -1.3514363120
 C         4.8508731596       -0.5149147395       -2.6243624323
 C         6.1714888937       -0.9369181618       -0.0891010099
 C         4.1271154318       -1.8142104815        1.0758151406
 O         3.1959846931        1.2946152582        0.5548500390
 O         2.8009842496       -1.2232891842       -1.4988078481
 C         4.0977469808       -0.3432018867       -3.8876663645
 C         3.1040346797        0.7851021416       -3.7576297948
 C         2.0547080915        1.1098405044       -4.9083724412
 C         0.6977605930        0.5052558437       -4.2390405058
 C        -0.2120209173       -0.3956882532       -5.0368881535
 O         3.1569520912        1.6344186411       -2.8584372691
 O         0.3418840503        0.8373228567       -3.1363412077
 C         1.7913166899        2.6962194770       -4.9342597685
 C         2.2878239795        0.4257919666       -6.2680829912
 C        -1.5660251331       -0.6814545798       -4.3753292128
 C        -2.2931627252       -1.9330754172       -4.8021509957
 C        -3.5836828187       -2.3049076252       -3.9735883701
 C        -4.6853642263       -1.0833903496       -4.1089439510
 C        -5.2147390652       -0.8160154764       -5.6260847996
 C        -4.2391966640       -3.5558663917       -4.6291135927
 C        -3.3521466623       -2.5708264973       -2.4915813665
 O        -2.0609882090       -2.4897485006       -5.8465562868
 O        -4.9411318269       -0.3770676433       -3.1453165053
 C        -6.4894346692        0.0004396738       -5.6159642084
 C        -6.3285003498        1.4982649570       -5.3337043933
 C        -7.6952413891        2.2711553855       -5.7649663218
 C        -8.1734257705        1.8978401303       -7.2294818306
 C        -7.2214540613        1.7431327303       -8.3877230314
 O        -5.3237506217        2.0493245862       -4.9976204196
 O        -9.3459027631        1.9428345159       -7.4779062254
 C        -8.8209526626        1.9173298841       -4.7953284020
 C        -7.5047474512        3.7693076532       -5.7794728780
 H         0.2602729280       -9.3540637603        6.9319622618
 H        -1.1239571408       -8.8882915463        5.8011473393
 H         0.1427313885       -9.8323968091        5.2301459073
 H         0.0831300398       -4.7269826996        4.6537809048
 H        -0.6026020507       -4.8777856603        6.2183493431
 H        -1.1452179503       -6.2489325429        7.2582035858
 H        -0.2058651662       -6.1213774007        8.5844728074
 H        -0.6897888308       -7.7860600314        8.1257650406
 H         2.8591757104       -7.4343202242        6.7773073306
 H         2.4056633516       -6.7842103271        8.2873481540
 H         1.9814248716       -8.6294286341        7.8047094059
 H         0.5524385801       -2.7489010043        6.8367760869
 H         1.5934443014       -2.7464670029        5.5098927707
 H        -0.1383595192        0.0712856956        3.0899175388
 H        -1.2507666743       -0.9142227506        2.2604524607
 H        -3.1378010492       -0.7653835071        6.1434018304
 H        -2.0383148799       -1.4263013685        7.4487263505
 H        -2.7447364159       -2.4745887631        6.1976312540
 H         0.2072923640       -0.6440198290        7.0481420952
 H         0.6271499407        0.0758349478        5.4868431877
 H        -0.7725418388        0.7416358653        6.5941305479
 H        -1.9086098583        1.9404521128        3.0293657440
 H        -2.7545397690        1.0975780813        1.8994902004
 H         0.2635070600        5.6379133440       -0.2490801019
 H        -0.3834250412        5.5560638884        1.5075860603
 H        -1.2106948247        2.1674023120       -1.7178001288
 H        -2.2019653801        3.6934590274       -1.4032584854
 H        -2.8782393339        2.1197159266       -0.8884823538
 H        -3.3041679999        3.2320385124        1.2343857041
 H        -1.9355147161        3.9212087864        2.2406828580
 H        -2.5516161203        4.7856531331        0.8466967635
 H         2.2809142033        5.0287562200        0.3227951733
 H         1.9159770641        6.4802571106        1.1873688026
 H         5.2073430252        2.2906099872        3.5633777801
 H         3.5324025411        2.0280725228        2.9065492872
 H         4.5179667268        6.3075705331        1.7936794669
 H         4.7934787255        6.6336726593        3.4540628533
 H         3.2071038571        6.9615475650        2.7832143305
 H         3.1411660754        5.1875367057        5.1669825469
 H         3.3080332426        3.5090566938        4.7539661571
 H         4.6898712609        4.5699295032        4.8348703087
 H         5.6730533573        0.2923938098        2.2948629577
 H         6.1431282580        1.7754461005        1.3822000789
 H         5.4530372111        0.4514499583       -2.6520874512
 H         5.5985215927       -1.3460611966       -2.6308623030
 H         6.7077323519       -0.3461850536       -0.8428695603
 H         6.4884752498       -1.9299704228       -0.2754681325
 H         6.7049914950       -0.8030366093        0.9235264897
 H         4.5539460119       -2.7513008614        0.7417653242
 H         4.5280347152       -1.5470463163        2.0391907005
 H         3.0858905634       -1.9634947678        1.0954900430
 H         4.7566421119       -0.0818088063       -4.6776055087
 H         3.5782315039       -1.2197405108       -4.3100111944
 H        -0.4258798721       -0.2318104747       -6.1499479137
 H         0.2259785046       -1.3887900406       -5.0565709890
 H         1.3904536725        3.0290407590       -4.0281369841
 H         1.1830054685        2.9285578214       -5.7464625419
 H         2.7580385784        3.2092990283       -4.9387868712
 H         1.6007499563        0.7628926507       -7.1196852463
 H         3.2474440161        0.7396578571       -6.5313219318
 H         2.3941407525       -0.6705729507       -6.0596084962
 H        -2.1482314262        0.2231872630       -4.5271884238
 H        -1.5049916463       -0.7574930369       -3.2601726278
 H        -4.4482279964       -0.3165362701       -6.2857412218
 H        -5.4481917771       -1.7575839632       -6.0687310861
 H        -4.3762703107       -3.4877649761       -5.7392476217
 H        -5.2255079973       -3.7920065715       -4.2696718984
 H        -3.5384663247       -4.3223388991       -4.3250608296
 H        -3.4545856420       -1.6485034732       -1.8984047005
 H        -4.1482257014       -3.3665328414       -2.3777312974
 H        -2.3828996710       -3.0222236022       -2.3128369400
 H        -6.7631020009       -0.0496265097       -6.6550969929
 H        -7.2515828412       -0.2328415870       -4.8397291967
 H        -6.1961447150        1.9436613391       -8.0197901555
 H        -7.4266262742        0.7466511358       -8.7744453437
 H        -7.3570791642        2.5723240090       -9.0410590863
 H        -8.3854462476        1.8629671329       -3.8039323861
 H        -9.2685793281        0.9306905706       -5.0766420308
 H        -9.7350623110        2.4933998721       -4.7530253725
 H        -8.4186690360        4.2149472399       -5.9077328381
 H        -6.9155399760        4.0290998057       -4.8769256229
 H        -6.7556153261        4.0788052447       -6.4830147936
 Na        1.3144658987        0.9369147739       -1.0976261475
