155

 C         0.8007214930        6.6184026764       -4.2318205569
 C         1.3710700626        6.0163841734       -5.5083555526
 C         2.5607852142        4.9638894876       -5.3987440438
 C         2.0612118834        3.4964986319       -5.2962324777
 C         1.8887479452        2.6065856102       -6.5854599076
 C         3.4670291019        5.1137734104       -6.6979502620
 C         3.4912933329        5.4647287046       -4.2712368322
 O         1.1004203673        6.5074410545       -6.5383311450
 O         1.8363009495        2.9867558771       -4.1857402589
 C         2.2423957039        1.1493706335       -6.4711302558
 C         1.1813016858        0.4798253615       -5.6750457925
 C         1.6552869608       -0.9341908343       -4.8213108469
 C         0.2166505178       -1.7835174544       -4.9168266364
 C         0.1550620174       -3.0297370050       -5.7954242796
 O        -0.0296196674        0.7495371818       -5.6096098789
 O        -0.5560432655       -1.4810675536       -3.9994087563
 C         2.9530345896       -1.6785901014       -5.4522191734
 C         1.8017916321       -0.6760878684       -3.1662985484
 C        -1.3584611198       -3.5047407730       -5.9339226451
 C        -1.6227959357       -4.6513723790       -5.0728842660
 C        -3.0141311505       -5.4892481345       -5.5636785245
 C        -4.1216706138       -4.4582367137       -5.1038079195
 C        -5.5813838779       -4.6068089777       -5.7752807200
 C        -2.9359387197       -5.8794422202       -7.0929001978
 C        -2.9364584638       -6.7490697549       -4.7545944970
 O        -0.8993046440       -5.1271660786       -4.2215287764
 O        -3.9335574478       -3.5261354504       -4.3016292795
 C        -6.5920321716       -3.5276650663       -5.1923185130
 C        -6.6039111788       -3.7514919680       -3.6753241807
 C        -6.6895658889       -2.4626203146       -2.6671422252
 C        -5.3116290501       -2.4366366595       -1.6214077963
 C        -5.5593036764       -2.8649938429       -0.1784093991
 O        -6.5682496649       -4.8190237316       -3.1858008857
 O        -4.2074073125       -2.1589684982       -1.9732156162
 C        -6.3975132180       -1.2171959184       -3.4544248146
 C        -8.1440457634       -2.4688361044       -2.0816882063
 C        -4.1559712548       -2.9922904708        0.4548832968
 C        -3.4212166325       -4.1750775196       -0.0257676504
 C        -2.7088886510       -5.2296505310        0.8789766422
 C        -2.0499669142       -4.2577750507        1.8690226885
 C        -0.9057030693       -3.3061553379        1.5004272176
 C        -3.8154033971       -6.2051964329        1.4913094845
 C        -1.6843822447       -6.1856552094        0.1252029878
 O        -3.0838073982       -4.2413210594       -1.2439024497
 O        -2.4738983501       -4.1398105537        3.0149654241
 C        -0.5361776133       -2.5457992141        2.7621253532
 C        -0.3565138342       -0.9302347082        2.2242980570
 C         0.5299991030       -0.0124585851        3.1545005111
 C         0.8465533354        1.2267085996        2.2913398788
 C         0.0820822167        2.4972703433        2.3168004616
 O        -1.1178723519       -0.4376870733        1.4151473693
 O         1.8853596550        1.2200150548        1.6637663609
 C        -0.2541106189        0.2254158126        4.3541417372
 C         1.8389671457       -0.8949652829        3.4913523172
 C         0.8999187266        3.6898915239        2.8806882067
 C         0.8805589257        3.8743878430        4.4269463982
 C         1.5506555764        5.1592524472        4.9586408975
 C         1.5957302402        5.1027386984        6.5766077431
 C         2.1318682056        3.7358141430        7.1076696751
 C         2.9617378781        5.3872978112        4.3837177623
 C         0.6546156934        6.3622753761        4.4438428877
 O         0.2977467905        3.1117118637        5.1702163584
 O         1.2129538899        6.0151691077        7.2142584898
 C         2.6913399760        3.9827379187        8.6084620603
 C         4.1644277014        3.4414184512        8.4295297477
 C         5.0799107678        3.5425701514        9.7768877879
 C         6.1444079855        4.7798508859        9.6778816953
 C         6.9532415665        5.0476797181        8.3364445814
 O         4.6645793520        3.2258602129        7.3339919143
 O         6.2947097097        5.4416715245       10.6538712093
 C         4.1324197587        3.8043367070       10.9379267737
 C         5.9702974177        2.3503134266       10.0802618496
 H         1.1458175967        7.6889961659       -4.1871434287
 H        -0.1775897193        6.4410084985       -4.1988105087
 H         1.0777914411        6.1973126332       -3.2967496713
 H         0.8473202347        2.6247624588       -6.8160425781
 H         2.2788835224        3.0865136664       -7.5238455459
 H         2.7321025569        5.0300110889       -7.5484840849
 H         4.1624906129        4.2767981580       -6.7556914625
 H         3.9826660882        6.0309698864       -6.6144478887
 H         3.8910770880        6.4409594052       -4.2164599681
 H         2.8623604700        5.5579993077       -3.3549346605
 H         4.3792860670        4.7884851819       -4.0487983326
 H         2.2655189853        0.7525926123       -7.5495343270
 H         3.1921071260        1.1699463947       -6.1158058325
 H         0.6008853825       -2.7749341376       -6.7981254938
 H         0.8069334847       -3.6027584587       -5.1670293543
 H         3.6080678328       -1.9218026132       -4.6698823618
 H         3.6425873752       -1.2546991916       -6.2288592617
 H         2.5695391340       -2.6780295246       -5.8531898597
 H         2.6621864024       -0.1783409406       -2.9399459111
 H         0.8978441149       -0.0730619531       -2.9737453026
 H         1.6299098002       -1.6695417916       -2.8142330478
 H        -1.5218673975       -3.8968891209       -7.0159098164
 H        -2.1232477196       -2.7508947891       -5.8505027730
 H        -5.4289508808       -4.4844938937       -6.8788530932
 H        -5.9908598482       -5.5383459752       -5.5074174381
 H        -1.8346030089       -6.1565534791       -7.2269693693
 H        -3.2956694625       -5.2729485407       -7.8957352783
 H        -3.4241495113       -6.8205386330       -7.2054469096
 H        -3.3250796287       -7.6372438807       -5.2714008005
 H        -1.9300651086       -6.9221744351       -4.3902572010
 H        -3.5679990334       -6.8568489962       -3.8132988826
 H        -6.1300454849       -2.5447542370       -5.4027329508
 H        -7.7225360325       -3.5404054571       -5.5541441002
 H        -6.0283633926       -2.0544875006        0.4280649704
 H        -6.0636458437       -3.8369410464       -0.0271984656
 H        -6.9316756986       -1.1569349669       -4.4122329122
 H        -5.3553363132       -1.2159703296       -3.8202231655
 H        -6.5957496929       -0.3341922290       -2.8223355067
 H        -8.5642974363       -3.5067369271       -2.0444475938
 H        -8.2175230527       -2.3155625154       -1.0401215260
 H        -8.7750771773       -1.9452516316       -2.7764385643
 H        -4.2610197678       -3.0526296874        1.5043583828
 H        -3.6890392040       -2.0189903101        0.2166671008
 H        -0.1424316799       -3.9450665511        0.9954889736
 H        -0.9975719672       -2.5196902750        0.7639830152
 H        -4.6825963793       -5.7077797706        2.0087730909
 H        -3.4280348202       -6.7594525670        2.3870750988
 H        -3.9278414024       -6.9340933484        0.6609416811
 H        -1.1180712608       -5.6222182958       -0.5482989559
 H        -0.8691852097       -6.5444722899        0.8037479364
 H        -2.1619682573       -6.9931654607       -0.3654037703
 H        -1.3917457072       -2.4606056230        3.4530270415
 H         0.3958477629       -2.7988688548        3.2224834551
 H        -0.2399195777        2.7079377917        1.2735435635
 H        -0.8751961494        2.5131778095        2.9120918690
 H        -0.9627700600        1.0828637646        4.1947853981
 H         0.4603789527        0.5021274329        5.2361984613
 H        -0.8653454217       -0.6954128733        4.7415524389
 H         1.9940161441       -1.3403513448        2.5713402557
 H         2.6267549943       -0.4278644410        4.0374071249
 H         1.5241013159       -1.6714200359        4.1176234382
 H         0.3992388475        4.5998390695        2.4960131626
 H         1.9392630406        3.6371816154        2.4506243246
 H         1.3116860294        3.0379127520        7.1167115703
 H         2.8593725933        3.3947059899        6.3775462572
 H         3.2956117286        4.8555844818        3.3923165575
 H         3.5979641136        4.9130008372        5.0492513595
 H         3.1309155111        6.4380676686        4.2086977546
 H        -0.1329000108        6.1339090093        3.6890228465
 H         0.1351257798        6.9901057561        5.1969948011
 H         1.1541566522        7.2509792568        3.9635902697
 H         2.6856725240        5.0416229750        8.8354905415
 H         2.0945982906        3.4332905707        9.2956815485
 H         6.5235638902        5.8169576711        7.6529734637
 H         8.0217314062        5.3744014639        8.4779482578
 H         6.7254246651        4.1739494640        7.6761391026
 H         4.6928100021        4.1887862295       11.8438624146
 H         3.5965011364        2.9791487064       11.2462251017
 H         3.1843279248        4.4541487626       10.9474535021
 H         5.5465283083        1.4628109376        9.7630112280
 H         6.9544946746        2.3338776165        9.6941122275
 H         5.8863092540        2.3278657943       11.1913332857
 Na       -1.8881555566       -3.2744015419       -2.9977573854
