155

 C        -1.2777324172        5.7910206236       -6.2607645416
 C        -0.7415296059        4.4375754698       -6.7897928052
 C         0.8481771218        4.2788125231       -6.8303943492
 C         0.9828265874        3.9554123096       -5.3219205668
 C         0.7722497383        2.4535005055       -5.0308223970
 C         1.2844873836        3.1978352067       -7.7112995724
 C         1.6821522950        5.5057875533       -7.0703220658
 O        -1.4941558153        3.4635466909       -6.9468452751
 O         1.1132617013        4.6975002095       -4.3929931457
 C         0.5442400165        2.0507424550       -3.5524412363
 C         0.9481239237        0.6217401882       -3.4369685209
 C         0.5337599437       -0.3979554999       -2.3343968454
 C        -0.6198845984       -1.2912868725       -3.0642910096
 C        -0.2861107300       -2.0642047642       -4.2255834817
 O         1.8853184094        0.3192870450       -4.2253171416
 O        -1.6618985961       -1.3076514696       -2.4581152695
 C         1.7229454134       -1.4515901564       -1.9709320990
 C        -0.0319712339        0.3099083329       -1.1216079419
 C        -1.2601172349       -2.0543925261       -5.5259197673
 C        -2.4133608983       -3.1444869250       -5.3845284209
 C        -3.7095216011       -3.4005722401       -6.2675413515
 C        -4.9055980211       -3.3376257171       -5.2328887502
 C        -6.2527257944       -3.2133545135       -5.8465046195
 C        -3.5669110643       -2.2280286458       -7.2845470371
 C        -3.9390652426       -4.7518805999       -6.9228580998
 O        -2.2227427413       -3.9806732707       -4.5026726476
 O        -4.6972089722       -3.5114980162       -4.0666550038
 C        -7.2540008041       -2.4959892262       -4.7904141673
 C        -7.9784097250       -3.2685800284       -3.7253546601
 C        -8.0644547747       -2.4731739954       -2.2956878684
 C        -6.5839647892       -2.0719780530       -1.7110140960
 C        -6.2379214066       -2.5343342435       -0.3228667802
 O        -8.3196831432       -4.3869410895       -3.8007828712
 O        -5.9111159450       -1.4991438279       -2.5223163997
 C        -8.6283584159       -1.0169514661       -2.3730980620
 C        -8.9188449576       -3.3122212268       -1.2613820722
 C        -4.7409302757       -2.1507600226        0.0553989722
 C        -3.9432624390       -3.4018409318        0.2746137752
 C        -3.8384606083       -4.1857146949        1.7046253068
 C        -2.6312240742       -3.4429038067        2.2395122462
 C        -1.2238347306       -4.1644288628        2.4819992231
 C        -4.9478725265       -3.7950655710        2.6989877918
 C        -3.7844123814       -5.6553394260        1.3395641064
 O        -3.3727740252       -3.8661906786       -0.6813628008
 O        -2.6790598899       -2.2273154336        2.4674116965
 C        -0.2547392038       -3.2951889485        3.2283637931
 C         0.4807318147       -2.2566164360        2.3090654806
 C         1.8359737489       -1.4720941943        2.9387193649
 C         1.1894674514       -0.1364746618        3.6231061925
 C         1.3308116632        0.1941132936        5.1836947634
 O         0.1704123319       -1.8378241375        1.2149163410
 O         0.5100506449        0.6346422135        2.9779689213
 C         2.6773614668       -2.1827970262        4.0171575716
 C         2.7331576782       -1.0504845805        1.8706615971
 C         1.1304497466        1.7501102364        5.5064650330
 C         2.4450063601        2.4647630152        5.2026460484
 C         2.3821235390        3.9196714778        5.6341760506
 C         3.5567931518        4.4245581448        6.5095265781
 C         4.8685550365        3.7973916529        6.1201528708
 C         2.5200842651        4.6504393248        4.2178152731
 C         1.0816198092        4.2050336893        6.4261591075
 O         3.4209235477        2.0347474909        4.5626797463
 O         3.4272435722        5.1902664533        7.3618084690
 C         6.0732016217        4.8008526391        6.5099876190
 C         7.1589551065        3.8945966283        7.2522022881
 C         8.7263490849        4.1058913111        7.0443063270
 C         9.3430019413        2.9779356554        6.0114471266
 C         9.6846041784        1.5944034728        6.3770796005
 O         6.6751461005        3.2700730070        8.2068275214
 O         9.4314133543        3.4099317111        4.8723831829
 C         9.0109552181        5.5018190445        6.4818016612
 C         9.3471695091        3.8504397772        8.4587758143
 H        -0.3621373867        6.5234041310       -6.1824002590
 H        -2.0131815840        6.1576357459       -6.8945407879
 H        -1.4554481736        5.7674867418       -5.2057231711
 H        -0.0765725620        2.0694443142       -5.6475289617
 H         1.6751242899        2.0008733242       -5.1996860758
 H         0.6802512801        2.3255294766       -7.7489230101
 H         2.2845581623        2.9168144889       -7.4714740273
 H         1.3233864984        3.4676510201       -8.8150916828
 H         1.1462394140        6.0464101527       -7.9555719453
 H         1.5721860923        6.1154896100       -6.1317445787
 H         2.6702968507        5.1450578705       -7.2715146158
 H         1.1608698282        2.3773047721       -2.7787278722
 H        -0.4978115462        2.3318124966       -3.1199579733
 H         0.6046437608       -1.5946944115       -4.5342717100
 H         0.0096180556       -3.1192204003       -4.0065458141
 H         1.4146677921       -2.1836480888       -1.3031457140
 H         2.3868329615       -0.9382389546       -1.3109852813
 H         2.1683761434       -1.8560297533       -2.8746752271
 H         0.7749262292        0.8066680605       -0.6213996600
 H        -0.7455964084        1.1486904225       -1.4261145802
 H        -0.5756310258       -0.3628992600       -0.3989280208
 H        -0.6169256499       -2.4350781960       -6.3516053690
 H        -1.6583619439       -1.1250489305       -5.8720668735
 H        -6.1662670989       -2.6596801421       -6.7281248163
 H        -6.6280318238       -4.2296573438       -6.1225365353
 H        -2.8898151963       -2.4338589981       -8.0840884204
 H        -3.3940682653       -1.1445571741       -6.9277064956
 H        -4.4308757446       -2.1522823039       -7.9993075709
 H        -4.6758293788       -4.5743481722       -7.7424423513
 H        -3.0415683521       -5.2937627340       -7.4460176021
 H        -4.3562611290       -5.5595410114       -6.3269536523
 H        -6.5486704311       -1.6543039801       -4.4435159425
 H        -8.0214766189       -1.8746222477       -5.3692160146
 H        -7.0088167570       -2.4838486071        0.5651310697
 H        -6.2576275623       -3.6738577656       -0.2653010930
 H        -9.7052379357       -0.9917517632       -2.4222339525
 H        -8.2013747359       -0.5167722936       -3.2767141275
 H        -8.3809490622       -0.5024536917       -1.4163610880
 H        -8.3892696984       -4.1828890815       -0.9567707592
 H        -9.0238916778       -2.8939878583       -0.2132100928
 H        -9.8670015143       -3.5245307186       -1.8379586508
 H        -4.7735273983       -1.6335323119        0.9657176481
 H        -4.3329784633       -1.4605026060       -0.7213428402
 H        -1.5327334182       -5.1013792406        2.8533470127
 H        -0.9049261715       -4.4469998170        1.4043231016
 H        -5.0587828390       -2.7396100426        2.4895110754
 H        -4.6362907208       -3.9677107757        3.6981636579
 H        -5.9201391673       -4.2850172846        2.5227135527
 H        -4.6367106633       -5.8913092861        0.7475035026
 H        -2.9588717245       -5.6304310024        0.5980493893
 H        -3.7175605159       -6.4148672327        2.1612633036
 H        -0.4843314960       -2.8547495121        4.2454284481
 H         0.4550032971       -3.9808735007        3.6335080388
 H         0.6470659085       -0.4405357025        5.7772224021
 H         2.3306222407       -0.0180237013        5.4561172360
 H         2.1408345136       -2.5820381780        4.9194878163
 H         3.3114061666       -1.4495046502        4.5326892425
 H         3.3522138812       -2.9391421610        3.6226297425
 H         3.7141927204       -0.6595856922        2.2355976462
 H         3.0291467081       -1.7662498146        1.1469991347
 H         2.4234081739       -0.1688036729        1.2317629981
 H         1.0270874353        1.8921227124        6.6013154911
 H         0.3244185226        2.2700799992        4.9574357379
 H         4.9617567767        2.8588699621        6.7146916309
 H         4.8089519915        3.4497065875        5.0650358092
 H         2.8038215889        5.7019939121        4.2534637435
 H         1.5362416489        4.5388079469        3.6819886889
 H         3.1780842232        4.0969868424        3.6598318619
 H         1.0505151043        5.3200583400        6.6706489795
 H         0.2203564898        3.6643887648        6.0309530121
 H         1.2568452884        3.6440605851        7.2781330598
 H         6.3893155277        5.3002171979        5.6142159399
 H         5.8189714876        5.6596132407        7.1139456659
 H         9.3862815675        0.8719699006        5.6951437338
 H        10.6880267502        1.3914894439        6.5737508409
 H         9.2388699082        1.4774507764        7.3754561429
 H        10.1307464530        5.5738581858        6.2984373762
 H         8.9670758833        6.3246398874        7.1677185573
 H         8.3759177318        5.9174012533        5.6771983957
 H        10.3279313677        4.1740168293        8.5481111320
 H         8.6771184287        4.4452172080        9.1639802548
 H         9.2337815167        2.8461509518        8.8992805958
 Na       -3.4590601912       -2.4938404057       -2.5446546365
