155

 C        -1.7476823936        5.9555304294       -6.9487617568
 C        -1.0834269788        4.5560001095       -7.3109893765
 C         0.3415491610        4.2128243092       -6.9518474657
 C         0.6981499634        3.7895772302       -5.3416474291
 C         0.3924255473        2.2599482881       -4.9136112262
 C         0.9401435159        3.0309115625       -7.8555462570
 C         1.2936702215        5.5807024111       -7.1425800312
 O        -1.7850645983        3.6880621644       -7.7468959634
 O         1.1696569111        4.5870730913       -4.6702885017
 C         0.4785185245        2.0290032049       -3.3611598862
 C         0.8944862139        0.5173321877       -3.2004149562
 C         0.1908022438       -0.4793906250       -2.1014977943
 C        -0.9521155564       -1.3028092733       -2.7366568302
 C        -0.5387664570       -2.1325649938       -3.9432838071
 O         1.6520759886       -0.0819084433       -3.9875550432
 O        -2.0969261118       -1.2695211219       -2.3529580307
 C         1.1939433153       -1.4372432568       -1.4856079384
 C        -0.3919139780        0.4076377002       -0.9819791688
 C        -1.6616915302       -1.8871218308       -5.1083583996
 C        -2.5331351916       -3.0751459375       -5.2968589996
 C        -3.7413449401       -2.9583022293       -6.2473165696
 C        -5.2781294639       -3.2396335963       -5.4609973645
 C        -6.5266400866       -2.9465614164       -6.1936864938
 C        -4.0581737746       -1.4998059335       -6.7232279888
 C        -3.4602319594       -4.0320611523       -7.3822145454
 O        -2.4170766440       -3.9679961383       -4.4579378789
 O        -5.2047720624       -3.6267035541       -4.3584438966
 C        -7.5072039271       -2.3474652436       -5.0653126492
 C        -7.6290027194       -3.0403280037       -3.7128010251
 C        -7.8756341017       -2.2064596664       -2.4851968959
 C        -6.3233062921       -1.8995067075       -1.8054168839
 C        -6.1496665066       -1.8203906582       -0.2661113340
 O        -7.3593798776       -4.2105497100       -3.5175167962
 O        -5.4640877409       -1.5247592493       -2.5215514578
 C        -8.7511031800       -0.9261539859       -2.6849562323
 C        -8.4686785946       -3.0641467465       -1.4030060376
 C        -4.6103974903       -1.9808704248        0.2544344784
 C        -4.0657037733       -3.4438660220        0.3903885366
 C        -3.9285275791       -4.1677858095        1.7982387346
 C        -2.7887809204       -3.4565455646        2.4743277323
 C        -1.3364992056       -3.8826803924        2.3589697897
 C        -5.2831288521       -4.0430648241        2.6423549605
 C        -3.4236532875       -5.6347581108        1.5829485772
 O        -3.8337441839       -4.1141735985       -0.5794203578
 O        -3.0630787927       -2.5742177241        3.2753749300
 C        -0.3981170950       -3.1873833910        3.2230783154
 C         0.7364813056       -2.4424848108        2.4865293142
 C         1.9161728072       -1.7200303507        3.3320711333
 C         1.5475540255       -0.2190031625        4.0708655930
 C         1.7683678382        0.1386205473        5.5129263318
 O         0.5767811967       -2.3445052505        1.2830303914
 O         1.1080189817        0.5309358566        3.2352032863
 C         2.6003993026       -2.7763408490        4.2660070016
 C         3.0030897332       -1.3493479940        2.1927485806
 C         1.3310142270        1.5851199344        5.9076592230
 C         2.4089023197        2.5988830679        5.2959400397
 C         2.5159244141        4.0387686257        5.6707724332
 C         3.9367852004        4.1146334235        6.5073862859
 C         5.2414052577        3.5325569851        5.8221213952
 C         2.7625335783        4.8702997587        4.3796772293
 C         1.1620517029        4.5654803510        6.4522142009
 O         3.1875574572        2.1318629491        4.4760159790
 O         3.8813462626        4.7924443760        7.4725966640
 C         6.5787921144        4.4334182719        6.0608502715
 C         7.6482111392        3.8621175577        7.0514790152
 C         9.1969602720        4.2029331174        6.7552973453
 C         9.2108232821        2.9692838114        5.8056263106
 C         9.9464639616        1.7489448693        6.2521329977
 O         7.3584005382        3.1361001935        7.9306790025
 O         8.8209131893        3.0855471814        4.6711934252
 C         9.4655018309        5.5296077355        5.9587110143
 C        10.0696238150        4.2571049356        8.0776540711
 H        -1.1834469196        6.8773006138       -7.1296843371
 H        -2.7671697368        5.9303176146       -7.4813338138
 H        -1.8535014863        5.9823832692       -5.8076807641
 H        -0.6948311031        2.2177624482       -5.1663867469
 H         0.9951719784        1.6790390360       -5.4451055053
 H         0.5717154032        2.0494702131       -7.6477060906
 H         1.9200297442        2.8868104838       -7.7136723151
 H         0.8939751400        3.2915768132       -8.9619182409
 H         1.7087784879        5.3870627455       -8.1341386744
 H         0.6677691351        6.4697487773       -7.0585634782
 H         1.9670868887        5.7196646536       -6.3176877596
 H         1.1181225353        2.7569789163       -2.9412005978
 H        -0.5824291015        2.3131518341       -2.8887831786
 H         0.3651155843       -1.8226987522       -4.3000116008
 H        -0.3799152179       -3.1968542240       -3.5632648497
 H         0.6490933356       -2.1201038333       -0.8751234955
 H         2.0199687841       -1.0533359931       -0.8086122604
 H         1.6869750536       -2.0464366234       -2.3709653428
 H         0.1963237609        1.2372664534       -0.8256525360
 H        -1.5183149646        0.7259727373       -1.0957719452
 H        -0.4813482205       -0.1094074473       -0.0027482247
 H        -1.3413911720       -1.5515666682       -6.1255080106
 H        -2.2383492428       -1.0404789778       -4.7198881556
 H        -6.3109138834       -2.3087207622       -6.9860314438
 H        -7.0120603737       -3.8526216061       -6.5730117969
 H        -3.2003081537       -0.7538508508       -6.9194521739
 H        -4.6528172135       -1.0180793292       -5.9502658025
 H        -4.6023518500       -1.3537528467       -7.6445340633
 H        -4.3693812062       -4.5706909035       -7.8342905299
 H        -2.7069360006       -3.6847147336       -8.1556203498
 H        -2.7964693226       -4.7701679397       -6.9228182182
 H        -7.2743648685       -1.2439415934       -4.9294417685
 H        -8.4844286372       -2.1795759498       -5.5598880270
 H        -6.6583116144       -0.8234670256        0.1020253968
 H        -6.9387093052       -2.4405659042        0.3796654527
 H        -9.4135940863       -0.8986743581       -3.5233488930
 H        -8.1843816521       -0.0456781798       -2.7338767996
 H        -9.4631645026       -0.9213051080       -1.8449467574
 H        -7.8579575943       -3.8204458081       -0.9772251582
 H        -8.8070434685       -2.4358890972       -0.5369242688
 H        -9.3167385278       -3.5881024760       -1.7654517666
 H        -4.5421508655       -1.5350339667        1.1682868405
 H        -4.0788716147       -1.4744910970       -0.6425021790
 H        -1.3582719925       -4.9621716330        2.3787552490
 H        -1.2640957934       -3.6553616661        1.1980487459
 H        -5.6329113486       -3.0559621884        2.5078740120
 H        -4.9844811750       -4.2148923763        3.6296579490
 H        -6.0343745138       -4.7266903186        2.2720732578
 H        -4.3055074470       -6.1952432202        1.3512947383
 H        -2.6734558575       -5.7101599175        0.7652993792
 H        -3.0701350007       -6.0120534257        2.6011488639
 H        -0.7882896616       -2.4131353961        3.9727273196
 H        -0.1154383762       -3.8994665233        3.9755288009
 H         1.3622154133       -0.5872203389        6.1245718320
 H         2.7680028515        0.1358692106        5.6697739770
 H         2.2130078807       -2.8671411371        5.3537404127
 H         3.6034869281       -2.4228031321        4.4978613260
 H         2.4687548524       -3.7900746785        3.9447615931
 H         3.7317608038       -0.6728885657        2.4201536716
 H         3.5942093588       -2.1979141677        1.9066209637
 H         2.6915713206       -0.9930055052        1.2680401184
 H         1.1404754894        1.7403306689        7.0449578359
 H         0.3316289042        1.7573043063        5.3793378164
 H         5.3230421393        2.6355067195        6.3726224397
 H         5.1370934994        3.1728977201        4.8285012029
 H         2.8281939657        5.9547407687        4.6607512495
 H         1.8570927388        4.7712985653        3.6630007720
 H         3.5749929162        4.6031340352        3.8009936250
 H         1.5159890173        5.5885928536        6.6873732735
 H         0.4435664295        4.6741286595        5.7433809108
 H         0.8566499468        3.9781195866        7.4089983955
 H         6.9801137672        4.5496861080        5.0583013951
 H         6.2268947753        5.4244954974        6.3538800344
 H        10.3829563894        1.3590965067        5.3359971456
 H        10.8855623829        1.8034351351        6.8568155792
 H         9.2943373454        1.0288343015        6.8170712180
 H        10.4437363171        5.9615840702        6.3439691909
 H         8.8865638410        6.3403297014        6.0342635252
 H         9.5624313571        5.4991378139        4.8063159859
 H        11.0514440016        3.8970546444        7.9403638717
 H        10.2097754783        5.2406894999        8.6467194781
 H         9.5067915975        3.6332519597        8.7629050465
 Na       -3.5987815574       -3.0715928167       -2.7674559249
