155

 C        -1.8177071846        5.8073447862       -7.0591253233
 C        -1.2277375749        4.4404681249       -7.3456690612
 C         0.2145523932        4.1708070255       -6.9050944528
 C         0.4334936207        3.6517933388       -5.4422753385
 C        -0.0678891300        2.1554483680       -5.1101679552
 C         0.7787896454        3.1631794885       -7.9306787633
 C         1.1809333054        5.4070097870       -7.1000994890
 O        -1.8248079372        3.5577548605       -7.9652192561
 O         0.8736449912        4.3399326975       -4.4911930975
 C         0.4583892797        2.0236065685       -3.7029282185
 C         0.7294030506        0.6129748780       -3.2711376892
 C        -0.0229212031       -0.2767525587       -2.1283351397
 C        -1.0888739207       -1.2198515950       -2.6248766267
 C        -0.7345556063       -1.9951245717       -3.8822636320
 O         1.4824169594       -0.0747191305       -3.8717473408
 O        -2.2408244874       -1.2755176791       -2.1011818621
 C         1.0514851670       -1.2782818157       -1.5296482167
 C        -0.6235504805        0.5868407949       -0.9579155124
 C        -1.6137774203       -1.7965352713       -5.1452556587
 C        -2.6009083623       -2.9473314805       -5.4935197066
 C        -3.8537010901       -2.6258090158       -6.3166844255
 C        -5.0524998439       -3.2117918612       -5.3932238434
 C        -6.4802378192       -3.1573052883       -5.9859571762
 C        -3.9236429867       -1.0955986850       -6.7294951680
 C        -3.7594945326       -3.4182962886       -7.6077665029
 O        -2.5158966196       -3.9472985268       -4.8688958811
 O        -4.9918717128       -3.9093248184       -4.3678623191
 C        -7.4183515012       -2.4345755592       -5.0601456222
 C        -7.5413331227       -3.0388727373       -3.6895704471
 C        -7.6759990640       -2.1967359033       -2.4234523262
 C        -6.2269131599       -1.8895787652       -1.8653484183
 C        -5.9740767193       -1.6114225293       -0.3033206652
 O        -7.7382227855       -4.2018593342       -3.6630837361
 O        -5.4069776230       -1.4905679677       -2.7297983692
 C        -8.2602976277       -0.7575708250       -2.6224642259
 C        -8.5051744265       -2.9609328922       -1.4206004416
 C        -4.6355592100       -1.9357536658        0.3774382968
 C        -4.1946861937       -3.4814788031        0.4907354389
 C        -4.0750171252       -4.3114455436        1.8891160290
 C        -2.9961781371       -3.4032610471        2.7270714521
 C        -1.3954895575       -3.4973970500        2.3674587366
 C        -5.2800624525       -4.3444191942        2.8818303714
 C        -3.8512186536       -5.7569830763        1.4735596284
 O        -4.0078380688       -4.0862877612       -0.5510281684
 O        -3.2906354437       -2.6233743631        3.5728790181
 C        -0.4347965858       -2.8034847363        3.4786037879
 C         0.8608417302       -2.3624530611        2.7226100609
 C         2.0914260674       -1.7034312224        3.5981742493
 C         1.6385403548       -0.3007385351        4.0420054285
 C         1.8584093115        0.0054209436        5.5093269080
 O         0.8823854827       -2.4311613420        1.4999205190
 O         1.0368921805        0.4910564139        3.2953147917
 C         2.4031834696       -2.6752160263        4.7220716484
 C         3.1711274120       -1.4444824336        2.6182401277
 C         1.6150952498        1.4556314856        5.7880365482
 C         2.6671606802        2.3822796765        5.0100934400
 C         2.8192454415        3.8451726395        5.5813657061
 C         4.1727673125        4.0673902841        6.5263367583
 C         5.5030688836        3.4382921336        6.1058209753
 C         2.6519499475        4.8133021081        4.2706293504
 C         1.8022679319        4.2644042724        6.6449660105
 O         3.3285238076        2.0178804375        4.0401595629
 O         4.0534633451        4.6992351304        7.5534428561
 C         6.6448941339        4.5004476946        6.0709951763
 C         7.8100823639        3.9108683414        6.8996943107
 C         9.2833498240        4.2504092390        6.5119535377
 C         9.3884729204        2.9659627863        5.6688438622
 C        10.0809110374        1.7262386940        6.0508382877
 O         7.5982277354        3.1005678957        7.8028813803
 O         8.7672525519        2.8899687744        4.6134801743
 C         9.4452238191        5.5042042260        5.6383876415
 C        10.0758399016        4.2676329918        7.7653803418
 H        -1.6046951288        6.4035926899       -8.0046980828
 H        -2.7927457997        5.8809636305       -6.8207410437
 H        -1.2230468353        6.2271261077       -6.3106237693
 H        -1.1384290963        2.0228295927       -5.0992879462
 H         0.5078402422        1.5484433885       -5.9649590051
 H         0.2539763949        2.2230543994       -7.7942886111
 H         1.8517439081        2.7547676977       -7.7881976222
 H         0.6917845608        3.4918967522       -8.9269771328
 H         1.1337728700        5.7266809493       -8.1758757118
 H         0.8945503238        6.1292432245       -6.3086795260
 H         2.1421454705        5.1248141260       -6.6685684262
 H         1.4579791317        2.5479070101       -3.5399351103
 H        -0.2627788267        2.5225528124       -3.1541938627
 H         0.3279404086       -1.7125435143       -4.2739710168
 H        -0.6942697928       -3.0491306077       -3.7857119348
 H         0.7344716084       -1.8708951326       -0.6905792751
 H         1.8596359863       -0.6637490193       -1.2810120802
 H         1.5335484782       -1.8987527920       -2.2329071720
 H         0.1887583116        1.1234929360       -0.3597720060
 H        -1.3572573620        1.2641706790       -1.2047511361
 H        -1.1329167990       -0.0186934928       -0.2215425233
 H        -1.0264328029       -1.4121310508       -5.9718664141
 H        -2.3282243711       -0.9900682343       -4.9433242605
 H        -6.4892580096       -2.6058982912       -6.9745051690
 H        -6.7338118692       -4.2267337494       -6.1321855006
 H        -2.9467854843       -0.8067226967       -7.0409456481
 H        -4.3381870033       -0.2710517713       -6.0287911118
 H        -4.6193358459       -0.8977059332       -7.6222157354
 H        -4.5398611665       -3.0973649242       -8.2358811531
 H        -2.7873111012       -3.1745224802       -8.0672227310
 H        -3.7781472682       -4.5422688181       -7.5527847549
 H        -7.1434238762       -1.3918111857       -5.1658702450
 H        -8.4348872506       -2.3614193693       -5.4746307609
 H        -6.0951051306       -0.5525576008       -0.2379993644
 H        -6.7868394568       -1.8752635666        0.2848702778
 H        -9.1140464830       -0.8080719178       -3.3221237020
 H        -7.5217938845        0.0340252593       -3.0680585063
 H        -8.6856827498       -0.3516672483       -1.7088913414
 H        -8.0093186785       -3.9229544843       -1.1504404217
 H        -8.6719337686       -2.3944504405       -0.4829693529
 H        -9.5461058332       -3.3529380982       -1.7693255518
 H        -4.7720973625       -1.6714280980        1.4954230531
 H        -3.9593682351       -1.4037436836       -0.2002454228
 H        -1.3763618922       -4.6021976282        2.3193939992
 H        -1.1510319755       -3.1620039853        1.4083080280
 H        -6.1133978462       -3.6717479589        2.5997421576
 H        -4.8487269859       -3.9311026802        3.8169765512
 H        -5.5998564443       -5.3722807616        2.9918375477
 H        -4.6825806054       -6.1631030129        0.8406082541
 H        -2.8739636076       -5.7401895276        0.9714391897
 H        -3.6903338081       -6.3162156603        2.3594600840
 H        -0.8124189213       -1.9431851311        3.9613886479
 H        -0.1626071282       -3.4095595571        4.3915632709
 H         1.0317091308       -0.6193174592        6.0536018446
 H         2.9245536530       -0.3269075193        5.9098154189
 H         1.5929080201       -3.0735066619        5.2829014014
 H         3.0632423518       -2.1872732921        5.4519169505
 H         2.9266197600       -3.6041319135        4.3831097304
 H         4.1219246240       -0.9784393346        3.1201306372
 H         3.6707773382       -2.1907899281        2.0025328418
 H         2.9793016150       -0.6370784321        1.8231245219
 H         1.6628626792        1.8090403520        6.7550003873
 H         0.5956375096        1.5648960826        5.4758310702
 H         5.8743025591        2.5405328138        6.7274930064
 H         5.2614818688        3.0220773322        5.0861658015
 H         2.7161836115        5.8550424152        4.5459326685
 H         1.7142437578        4.6852348636        3.8128979600
 H         3.3831603006        4.6072813350        3.4660538864
 H         1.8775773315        5.3018712350        6.9296492231
 H         0.7220309336        4.0333765046        6.2370811361
 H         2.1162177054        3.6566906996        7.3634465494
 H         6.7494994243        4.8834797755        5.0490896491
 H         6.2309434060        5.2666711752        6.7555062238
 H        10.4580408961        1.1957564984        5.2258814561
 H        10.9134386009        1.9736091541        6.5997294315
 H         9.4441577498        1.1012599498        6.6531732655
 H        10.3789600974        5.8209689784        5.1522667838
 H         9.1495481705        6.4430278914        6.3032618861
 H         8.7557318180        5.6161755685        4.8454756283
 H        11.1640400637        4.4194760194        7.6629788357
 H         9.8592808516        5.2356382188        8.1191155756
 H         9.7896562977        3.5730700455        8.5883690552
 Na       -3.5666013817       -3.1075445905       -2.4506766409
