155

 C        -3.6665239525        3.7088260990       -8.4862607423
 C        -2.5104065998        2.9580352245       -7.7715490218
 C        -1.2376155728        3.9447338748       -7.2592567294
 C        -0.9552035444        3.6710810387       -5.7172918710
 C        -0.0610959876        2.4480791940       -5.1915943022
 C        -0.1462060265        3.4683188851       -8.0931766656
 C        -1.6160178644        5.4281788536       -7.3454068185
 O        -2.4566093335        1.7304601259       -7.6219992191
 O        -1.4533717336        4.3719297895       -4.8321416765
 C        -0.3009974605        2.0002486035       -3.7524376792
 C         0.2699859706        0.7121514063       -3.4324905535
 C        -0.1649930129       -0.0712634949       -2.0757867362
 C        -1.5496445726       -0.6602721948       -2.6049268458
 C        -1.5484866593       -1.5010586235       -3.9203549922
 O         1.0048640033        0.0501930932       -4.1744716287
 O        -2.6748210383       -0.4236129894       -2.0727917048
 C         0.9208158494       -1.0792958439       -1.4558268620
 C        -0.4930188618        0.8807096525       -0.8346820460
 C        -2.2465100163       -0.9054644521       -5.0650698973
 C        -2.4358173855       -2.0163888567       -6.1948118392
 C        -3.9762232228       -2.2462558178       -6.6142537768
 C        -4.9011484444       -2.3942790248       -5.4523922440
 C        -6.4288614568       -2.0517238718       -5.4537449337
 C        -4.2607169858       -0.8320903457       -7.2984073707
 C        -4.0925145733       -3.5407283990       -7.6508636653
 O        -1.6212749732       -2.6619267726       -6.7828879638
 O        -4.3735696140       -2.7554952530       -4.4089435226
 C        -6.8971839754       -1.2305864610       -4.2186198204
 C        -7.6369673601       -2.0350702864       -3.1368771581
 C        -8.0624929065       -1.2265431384       -1.7686045404
 C        -6.8153547450       -1.4117807771       -0.9888814403
 C        -6.8157020046       -2.6330250993       -0.1211763868
 O        -7.7480927983       -3.2801936420       -3.1311526292
 O        -5.8395563517       -0.6553009192       -1.1263567400
 C        -8.0493367622        0.2775793013       -2.1051169742
 C        -9.4819596577       -1.7488288097       -1.3867273645
 C        -5.9004752921       -2.4495476104        1.1149065854
 C        -4.6846532671       -3.4082986426        0.8663363724
 C        -4.1603734155       -4.3132210884        2.0068712453
 C        -3.3340799043       -3.2086656361        2.8922105979
 C        -1.7922116565       -2.8742140578        2.6697239981
 C        -5.3553887924       -4.9185062383        2.8646174595
 C        -3.2440887245       -5.3803422725        1.3849213350
 O        -4.0343763198       -3.3058048591       -0.1769857048
 O        -3.9933912665       -2.6054746797        3.7533367026
 C        -1.0294961862       -2.2427068961        3.8479363565
 C         0.4551382040       -2.7840230264        3.8984196139
 C         1.4877614338       -2.3510886949        5.0623232495
 C         1.8679456759       -0.8146995400        5.3991489436
 C         2.7575017149       -0.5039529252        6.6174073630
 O         0.8067464832       -3.5743922115        2.9800801345
 O         1.2904544595        0.0748570958        4.8315442460
 C         0.5691831228       -2.7389893057        6.2804725369
 C         2.6683185483       -3.2979281109        5.2588338184
 C         3.1203636204        1.0083066068        6.8559371864
 C         4.1133918500        1.4472893986        5.7241487068
 C         4.4352060843        3.0932885722        5.3121193360
 C         5.4115473114        3.5451906262        6.3475602774
 C         6.8457195250        3.1300716308        5.9931423833
 C         5.0452416977        3.0719683862        3.9506676671
 C         3.1492495181        3.8568530096        5.3365541112
 O         4.9482173416        0.6421130922        5.5134789928
 O         5.0804666362        3.9366296927        7.4434185612
 C         7.8398514239        4.0130673579        5.2260047512
 C         9.2739349635        3.5349224358        5.4646142554
 C        10.4741308709        4.1434621439        4.6981300371
 C        10.6311382073        2.9750134815        3.5485523496
 C        10.9647032654        1.5634922098        3.9306544812
 O         9.4810846030        2.6166176692        6.2444706009
 O        10.1727501145        3.1705665697        2.4371628979
 C        10.0657921754        5.4434350586        3.9308758341
 C        11.6449085393        4.3722983758        5.6479990303
 H        -3.2652266189        4.3126371112       -9.4202839345
 H        -4.3171675972        2.9106264744       -8.8031049496
 H        -4.1806377235        4.5375239797       -7.9540273677
 H        -0.1057491197        1.5589096976       -5.8782556970
 H         0.8933603947        2.9457971440       -5.0109898894
 H        -0.3229676622        2.3499397604       -8.2043374885
 H         0.8566390907        3.6608286930       -7.6014498633
 H        -0.2645554626        3.8203890625       -9.0508911746
 H        -2.1992477175        5.7240970535       -8.2345930043
 H        -1.9870493184        5.7492559524       -6.3119111247
 H        -0.6764438519        6.0411032858       -7.5272724131
 H         0.0349500863        2.5870467788       -2.9028813590
 H        -1.2849876784        1.8487666347       -3.5817213951
 H        -0.5983528935       -1.5869945408       -4.2726981991
 H        -1.8672228435       -2.5050904036       -3.4991619064
 H         0.3800424950       -1.7576596816       -0.8562738148
 H         1.6753287069       -0.4380625865       -1.0129373631
 H         1.4288654436       -1.8290518224       -2.1297403207
 H         0.1119571016        1.8052486675       -0.9910004509
 H        -1.4567015438        1.1818060105       -0.8442399885
 H        -0.0484402399        0.4701832137        0.0659668623
 H        -1.7850070113        0.0203662998       -5.5099205997
 H        -3.2005074303       -0.5982372731       -4.6982707057
 H        -6.6081870313       -1.6659234015       -6.4593066153
 H        -6.9742595600       -3.0545732500       -5.2931988679
 H        -4.7985710287       -0.7381619704       -8.1526737590
 H        -3.3716766086       -0.3574523464       -7.5929425364
 H        -4.8384065742       -0.3208904739       -6.4347053017
 H        -5.1839284893       -3.7249056366       -7.5268963832
 H        -3.8695937945       -3.2860084684       -8.6268368688
 H        -3.5238741518       -4.3678438879       -7.2047660117
 H        -6.1408974976       -0.6550113378       -3.7320048129
 H        -7.5983312362       -0.5019173384       -4.4454736078
 H        -7.9219475865       -2.6710221097        0.1639062292
 H        -6.5399509136       -3.5061564486       -0.7862904650
 H        -8.7739728752        0.4928984288       -2.8979915040
 H        -7.0655811985        0.5633620710       -2.3760342757
 H        -8.1956948907        0.8040467515       -1.1404963276
 H        -9.7120851238       -2.3924473032       -2.2625284458
 H        -9.6317524711       -2.1366158973       -0.4209137219
 H       -10.1279792242       -0.8578593615       -1.3004819566
 H        -6.4767682806       -2.7770472295        1.8925018124
 H        -5.5779809384       -1.4176353322        1.4615639291
 H        -1.2174060922       -3.7269657893        2.4824594610
 H        -1.6026777442       -2.3672894722        1.7822830674
 H        -6.2674070829       -4.9110154893        2.3019923688
 H        -5.4684259963       -4.3124902629        3.7492595392
 H        -5.1138581909       -5.9470330088        3.1305388796
 H        -3.8305529915       -6.1190050520        0.8198231062
 H        -2.5334384523       -4.9256681358        0.6679443429
 H        -2.5102774310       -5.7933019511        2.1016343277
 H        -1.0007165774       -1.0585248269        3.8358756190
 H        -1.4868686031       -2.3354756035        4.7935658319
 H         2.1345023650       -0.7311054555        7.3844575345
 H         3.6621508811       -0.9336922861        6.8563245462
 H        -0.2473639244       -1.9947550173        6.2485629323
 H         1.1727339874       -2.7744894403        7.1628546464
 H         0.3198850733       -3.7741950193        6.1285737609
 H         3.0978804017       -3.3246925923        6.3192908340
 H         2.1879357039       -4.2676716452        5.0308368102
 H         3.4172166934       -3.1223485857        4.3861683747
 H         3.7681509001        0.9210096903        7.7367423781
 H         2.2724257866        1.6705300993        7.1403430599
 H         7.1863042699        2.9805673800        7.0484066843
 H         6.8764801286        2.0408101861        5.6303726927
 H         5.4355504132        4.0557189563        3.6056518901
 H         4.2842176924        2.8150552245        3.2330318332
 H         5.8006122979        2.3605703320        3.8496848800
 H         3.2522538994        4.8526275305        4.9598611641
 H         2.5160270412        3.4606123771        4.4678978804
 H         2.5670788403        4.0359521528        6.2029475733
 H         7.7487084416        3.9529337799        4.1110057613
 H         7.7613980148        5.1636187735        5.1882485246
 H        11.4994137440        1.4856458181        4.8286462040
 H        10.1943262281        0.9109278461        4.1382758491
 H        11.5495789776        1.2141068775        3.0708524377
 H         9.0728505561        5.6458598510        3.9776127827
 H        10.5946651256        5.5247194471        2.9124144848
 H        10.3153480027        6.3493252717        4.4642509416
 H        12.5162688022        4.5745284701        5.0063046676
 H        11.4202658069        5.2998584948        6.2555417807
 H        11.6844452639        3.5197349217        6.2254898913
 Na       -4.3624933288       -2.0939329956       -2.0446226045
