155

 C        -3.8460094558        2.6356069617       -8.5414548222
 C        -2.7255041931        2.5083206640       -7.5440052036
 C        -1.7932019453        3.8349659347       -7.2524196680
 C        -1.4934374196        3.7267578739       -5.6268525048
 C        -0.1846917292        2.9935592082       -5.0700666648
 C        -0.5427892586        3.5361053681       -8.0766769086
 C        -2.5265690329        5.0722970112       -7.6723496668
 O        -2.3671392221        1.4091074799       -7.1054836353
 O        -2.3409209037        4.3800866132       -4.9753675402
 C        -0.4002934269        2.2875143568       -3.7161755835
 C         0.4015379429        1.1006585535       -3.4084786887
 C         0.0036950169       -0.0678133745       -2.3040277421
 C        -1.4123492006       -0.7113179845       -2.5920546779
 C        -1.3348647609       -1.5959865509       -3.9581378157
 O         1.4006745381        0.8253786114       -4.0631852698
 O        -2.5065751059       -0.5517696365       -2.0982200672
 C         1.1048473440       -1.1280469680       -2.3365214545
 C        -0.2356694496        0.7446395294       -0.8612075268
 C        -1.9214854610       -1.0634950806       -5.3391017766
 C        -2.4605066403       -2.1857617158       -6.2104049790
 C        -4.0448158599       -2.3062257764       -6.3946089824
 C        -4.9699163918       -2.0065479072       -5.1293686784
 C        -6.5075005582       -1.6819484193       -5.3043994330
 C        -4.2736487780       -1.1902674433       -7.4330703787
 C        -4.4758662142       -3.7152379359       -6.9844674167
 O        -1.6551545843       -2.8246924271       -6.8228586124
 O        -4.5620252881       -1.8717490369       -4.0095563668
 C        -7.1717100824       -0.8921958040       -4.1491023464
 C        -7.4980952295       -1.6976450183       -2.8856139235
 C        -8.2148112108       -0.9667024534       -1.7154062932
 C        -7.1152748446       -1.1227020668       -0.5827362813
 C        -7.1052439050       -2.3454449607        0.4948951753
 O        -7.2932893180       -2.9567647119       -2.8063046488
 O        -6.2311430482       -0.2545747397       -0.6712547094
 C        -8.5745602575        0.4601367921       -1.9168818289
 C        -9.5257628836       -1.8330857241       -1.3810393291
 C        -5.8537407090       -2.1916212006        1.3425706193
 C        -4.6939681717       -2.9883132840        0.7836811163
 C        -3.9238758284       -3.9545293187        1.6529952312
 C        -3.4243516652       -3.1460142350        2.9142523301
 C        -1.8702514952       -3.0963241199        3.1156231398
 C        -4.8425362790       -5.1333696129        2.2655074722
 C        -2.8435531824       -4.5744711171        0.7187039238
 O        -4.4711582419       -2.9180881683       -0.4451827050
 O        -4.2496485154       -2.7378752237        3.6780563697
 C        -1.1912252006       -2.7602490888        4.5443680475
 C         0.2726050753       -3.1458615075        4.5379752884
 C         1.1111209345       -2.7481910163        5.8832287746
 C         1.4376743729       -1.1467537771        5.6639578215
 C         2.5222039445       -0.4737537881        6.5781171542
 O         0.9244414860       -3.6751075312        3.6144859466
 O         0.8261800644       -0.5612909432        4.8410362854
 C         0.1312784231       -2.7610086108        7.1886330412
 C         2.2335402730       -3.8686658606        5.9409838563
 C         2.6867228119        0.9847082571        6.1015895760
 C         4.1943930893        1.3094378587        5.6105610629
 C         4.8080407500        2.6750454775        4.9783474194
 C         6.0827263104        3.1387940601        6.0855124460
 C         7.4801066514        2.3772867325        5.9007938357
 C         5.4844946144        2.4298406885        3.5680489277
 C         3.7032664179        3.7082294352        5.0584539819
 O         5.0184348848        0.4215465523        5.5225965408
 O         6.0286044183        3.9980497772        6.9261799086
 C         8.3115042960        3.6177300966        5.3578061396
 C         9.8990995524        3.4346312006        5.3953993263
 C        10.8551618663        4.1018843665        4.2838662988
 C        10.8010828863        3.1997179423        2.8806167813
 C        11.5108119665        1.8133587829        2.7838915110
 O        10.3758121900        2.8003088958        6.3028317045
 O        10.0442192004        3.4150620617        1.9678046705
 C        10.2315157035        5.4498660718        3.9869692297
 C        12.3108627344        4.0898416778        4.7157441728
 H        -3.5105553228        3.2408177403       -9.4659702738
 H        -4.1740226016        1.7233226179       -8.8748746366
 H        -4.7164482087        3.0813412140       -8.0158280350
 H         0.0148883311        2.2617059155       -5.7465299277
 H         0.4827900669        3.8244175751       -5.1147943279
 H        -0.3237967565        2.4228201968       -7.8475277325
 H         0.2617574222        4.0783801420       -7.6780169660
 H        -0.7930710985        3.7447265368       -9.1223023351
 H        -3.1423522450        4.8989161033       -8.4888978734
 H        -3.2862685593        5.2776444973       -6.9387477794
 H        -1.8004902783        5.9252849049       -7.9215693628
 H        -0.3754045393        2.9166252139       -2.8457467081
 H        -1.5098369117        1.8742662265       -3.7236914029
 H        -0.3703366956       -2.0049301694       -4.2818114802
 H        -1.8805020672       -2.5298006732       -3.6569280524
 H         0.8369433736       -2.0975789799       -1.7301968802
 H         2.1206109646       -0.7525421619       -1.9923232394
 H         1.1777676250       -1.6843699443       -3.3341439876
 H         0.6581327608        1.4873677896       -0.7828629834
 H        -1.1936184001        1.2034148459       -0.6873766940
 H        -0.2473681426       -0.0109897441       -0.1387323782
 H        -1.1299662395       -0.6623483787       -5.8777726179
 H        -2.7187197043       -0.2635509570       -5.3896056329
 H        -6.6129607243       -0.9967266348       -6.1482936002
 H        -6.9439476378       -2.6048993267       -5.5996841810
 H        -4.0384055321       -0.1830805634       -7.1286412794
 H        -5.1385522536       -1.3385684809       -8.0139366225
 H        -3.6109695740       -1.3721330110       -8.4144218097
 H        -4.9637257473       -3.3645126387       -7.8664801688
 H        -3.5534054314       -4.1214432121       -7.2589001683
 H        -5.0844842935       -4.3452218745       -6.4182045656
 H        -6.6395130407        0.0382876139       -3.9564548817
 H        -8.1576291511       -0.6670379300       -4.6609350931
 H        -7.9723693380       -2.2624805558        0.9805924997
 H        -7.3220849236       -3.3196432452        0.0904640119
 H        -9.3064476125        0.6300378809       -2.7427951591
 H        -7.6333649013        0.9646412370       -1.9781953943
 H        -9.1540538612        0.7568965966       -0.9880174666
 H        -9.6759992828       -1.9463146927       -0.3025052943
 H       -10.3221016153       -1.1871978198       -1.7451604791
 H        -9.6501184041       -2.6872752619       -1.9453027004
 H        -6.1209719476       -2.4971579417        2.4145970112
 H        -5.5540121778       -1.1353798272        1.1887144361
 H        -1.4444634814       -3.9788650040        2.6427552141
 H        -1.4663700867       -2.2439010065        2.5268038477
 H        -4.5007061178       -5.3838926195        3.2473094445
 H        -4.7059457702       -5.9923508269        1.6803716638
 H        -5.8869499782       -4.8497149956        2.1477467041
 H        -3.0884775243       -4.9422035965       -0.2591206442
 H        -2.1471737318       -3.7296799142        0.5261474178
 H        -2.1927816951       -5.3896801254        1.1264539072
 H        -1.4762714084       -1.7218603359        4.7264606068
 H        -1.6464719727       -3.2052692550        5.4221054637
 H         2.3314002819       -0.4725507920        7.7225494901
 H         3.4422510692       -0.9837192127        6.4959956224
 H        -0.7512219427       -2.1469510474        7.0880159970
 H         0.6861661984       -2.2788070120        7.9783245666
 H        -0.0193924988       -3.8402698106        7.2258003283
 H         2.9614374178       -3.5771279682        6.6452514244
 H         1.7538226916       -4.7592153606        6.1460261762
 H         2.6204072908       -3.8800581781        4.9234528084
 H         2.3575462494        1.6469528062        6.9125248006
 H         1.8771766172        1.2491245874        5.3700892531
 H         7.8211350316        1.8215289065        6.8155284734
 H         7.5280220739        1.6170843955        5.1213288713
 H         6.1848878965        3.1440138991        3.2252488700
 H         4.5912744027        2.4393229299        2.8974422699
 H         5.9547915891        1.3911118929        3.5042810676
 H         4.0537806021        4.6422859810        4.8385481805
 H         2.7015582693        3.5219008753        4.4522397392
 H         3.3054762665        3.7012122534        6.0895298466
 H         8.0037657774        3.7335140291        4.2623123384
 H         8.1104839335        4.5648706275        5.9355511130
 H        11.3574220835        1.3627540456        1.7580563419
 H        12.6117156521        1.9053804154        2.8099213352
 H        11.2752039404        1.1541540785        3.6650221148
 H         9.4498076209        5.3670685103        3.2034645677
 H        10.9166114124        6.2556097012        3.5420945445
 H         9.6529276600        5.8439307912        4.8134056646
 H        12.9334926820        3.7189410367        3.9889082802
 H        12.4159808885        5.1230732816        5.0477222886
 H        12.3912358186        3.4745405655        5.6225962443
 Na       -4.7817798032       -1.1282963327       -1.8710456874
