155

 C         0.3379999114       -9.2112032066        6.0695846338
 C         0.9266510317       -7.8031660183        6.0087267038
 C         1.3564045832       -6.9541733318        7.3010422281
 C         1.6520292132       -5.5530961058        6.8568399483
 C         0.8435196777       -4.8252851792        5.8134778438
 C         0.1369789663       -6.8041327138        8.2194308351
 C         2.5757350212       -7.6438328664        7.9463823795
 O         1.1398384431       -7.3090309060        4.9270807291
 O         2.3219343508       -4.8342148741        7.5926759758
 C         0.5916554741       -3.3458075822        6.2887609210
 C        -0.1917853158       -2.4344862872        5.3050903848
 C        -0.7355327454       -1.0244504925        5.8020552638
 C        -1.5239232456       -0.3755892338        4.6263434172
 C        -0.6939563759        0.1718157220        3.4861868879
 O        -0.5094450213       -2.7893873024        4.1559303250
 O        -2.7327675789       -0.2667876720        4.6187172659
 C        -1.8622503225       -1.3810688622        6.8931658802
 C         0.3520005799       -0.1228995417        6.3374176420
 C        -1.6140638331        1.0717333738        2.5991561974
 C        -0.9465437985        1.4415218830        1.2463086676
 C        -1.2912183060        2.8943134947        0.6457469933
 C        -0.0136986451        3.7454054538        0.5765517865
 C         0.2427474325        5.0924160127        1.3497900808
 C        -1.9944404074        2.5384418890       -0.7691753874
 C        -2.4562812929        3.6150453818        1.5027773825
 O        -0.2137301017        0.7758038983        0.5865701801
 O         0.9790763203        3.3587741174       -0.0557483060
 C         1.7745621993        5.4057476403        1.2829488626
 C         2.5768018038        4.4766259666        2.1771792013
 C         4.1743752448        4.6579622503        2.0872277902
 C         4.8051719686        3.3713383352        1.5442973842
 C         4.5205096978        2.1297646664        2.3064346602
 O         2.1625306415        3.6672467957        3.0123110700
 O         5.4799691500        3.2260314172        0.5144289401
 C         4.4754774909        5.9393772320        1.2109771311
 C         4.6172587223        4.9184780184        3.5352939467
 C         4.9802326656        0.8933926268        1.5638457831
 C         3.9007312791        0.4226572554        0.5142570480
 C         4.1267326756       -0.9848928898       -0.2035232399
 C         3.2346339342       -0.9663818993       -1.6044734392
 C         3.9585614401       -1.1950733249       -2.9384494307
 C         5.6155895410       -1.2338579138       -0.3818510851
 C         3.5146358515       -2.1534723370        0.6412478916
 O         3.0277089204        1.1859167368        0.2325167320
 O         2.0662210929       -0.7332693111       -1.6254966491
 C         3.2665691564       -0.5795828551       -4.2056194294
 C         2.6659357474        0.8641580926       -4.0519361976
 C         1.6000029882        1.2267093528       -5.0847439008
 C         0.1155060065        0.8439059842       -4.4707790219
 C        -0.9211559373        0.0728842098       -5.2179164210
 O         2.9976843691        1.6745473055       -3.1767888214
 O         0.0658494235        1.0488266869       -3.2787511411
 C         1.5066009477        2.7437509018       -5.1887451233
 C         1.7326661642        0.4887077762       -6.4524908029
 C        -1.9689591164       -0.6339194529       -4.2653070442
 C        -2.8115087769       -1.6957387636       -5.0248886760
 C        -3.9942484989       -2.4531650150       -4.2143582104
 C        -5.0420102300       -1.3643690288       -3.9431949438
 C        -5.9382697227       -1.0950324914       -5.0669263391
 C        -4.6414444049       -3.6435207823       -4.9642726985
 C        -3.4474658495       -3.0609801594       -2.9009882333
 O        -2.6270951910       -1.8716421778       -6.2361845191
 O        -5.0616359621       -0.7818005952       -2.8615706757
 C        -6.8182303754        0.1382851187       -4.9913514726
 C        -6.3809570975        1.4827716308       -5.7098101510
 C        -7.2242037837        2.7412614302       -5.7327023500
 C        -7.9226712185        2.8444373859       -7.1692327865
 C        -6.9855548894        3.3974648064       -8.3722515280
 O        -5.2376040075        1.6199094084       -6.0982903378
 O        -9.0165162412        2.3899845679       -7.3025894570
 C        -8.3832573626        2.7033375077       -4.6330030696
 C        -6.3276627599        3.9832013261       -5.4090031610
 H         0.4084174326       -9.6316106989        7.0709149114
 H        -0.7118945713       -9.1763852977        5.6081856236
 H         0.9747066035       -9.7921533615        5.3324310107
 H         1.2623058144       -4.7421872175        4.8116404591
 H        -0.1683507590       -5.2602890448        5.7836085831
 H        -0.6108504309       -6.3090981644        7.6430304880
 H         0.4602149996       -6.3767155334        9.2231582399
 H        -0.3311466007       -7.7380649035        8.4084344731
 H         3.3267124110       -7.7955478756        7.0906549080
 H         2.8755196556       -6.9488946566        8.6978474537
 H         2.3499599666       -8.5175042678        8.4783289505
 H        -0.1361043392       -3.3744755853        7.1155984616
 H         1.6015385044       -2.8565032765        6.6171787001
 H         0.1296568988        0.7751978753        3.9108802561
 H        -0.1938322162       -0.7172621502        2.9963059168
 H        -2.3094071880       -0.4844794333        7.3241569801
 H        -1.3498491567       -1.7102712652        7.7524542077
 H        -2.6147045124       -2.1684702737        6.5422591420
 H         0.8380254695       -0.6228386494        7.1967290565
 H         1.1389375658        0.0606761063        5.6321736827
 H         0.0872823534        0.8733109974        6.6430006728
 H        -1.7768221557        1.9496749789        3.1878796140
 H        -2.6110844869        0.5075817331        2.3667458749
 H        -0.3478863393        5.9121609605        0.9667231502
 H        -0.0685381004        5.0663955294        2.3865538258
 H        -1.4627270523        1.8797720039       -1.4112446062
 H        -2.1927757917        3.4979437451       -1.1569851357
 H        -2.9910377053        2.1262272120       -0.4695905218
 H        -3.2378294620        2.9294019091        1.6872868428
 H        -2.0096498399        3.9135260106        2.3978818626
 H        -2.7396690926        4.4815772278        0.8935192441
 H         2.0965007186        5.5184939872        0.2927633783
 H         1.8689777107        6.4514811289        1.7393108448
 H         5.0030352403        2.1312153745        3.2883307763
 H         3.4213327754        2.1620666954        2.5974974376
 H         4.3030016321        5.8238013752        0.1642002400
 H         5.5162605750        6.2657772864        1.4242218286
 H         3.8323777298        6.7869972752        1.5209675556
 H         4.1939064100        5.9303563734        3.7750684110
 H         4.1653590859        4.2434268340        4.2763593545
 H         5.6949596740        4.8947021068        3.7064822932
 H         5.0181524320        0.0537164684        2.2597477930
 H         5.9047569029        1.1145987247        1.0757213465
 H         4.8850376831       -0.5574176517       -2.9361892709
 H         4.3310323647       -2.1975435851       -2.9428585956
 H         6.1961131664       -0.3097838672       -0.4868809641
 H         5.9031451239       -1.8724698903       -1.2809223912
 H         6.0238362889       -1.5574017489        0.5049501888
 H         3.5933366014       -3.0898809032       -0.0208713046
 H         4.1181661326       -2.4238720582        1.4643160987
 H         2.5005064952       -1.8925169730        0.9884461496
 H         3.9787958525       -0.6285489985       -4.9781005400
 H         2.3069850547       -1.0620718589       -4.4504360796
 H        -1.3866262661        0.8106333345       -5.8175078748
 H        -0.4233481819       -0.6185538592       -5.8533579651
 H         0.8644449791        3.1108937073       -4.3723427397
 H         1.2045963950        3.0700677499       -6.2412987464
 H         2.5435320010        3.1511027947       -5.1189779211
 H         0.9901563248        0.7919102311       -7.1702638929
 H         2.7555274470        0.6844598421       -6.8911934915
 H         1.6829925654       -0.5095405857       -6.4276783619
 H        -2.6259841763        0.1460879520       -3.8041494674
 H        -1.4221560433       -1.0694609392       -3.3582558747
 H        -5.4129681367       -1.1173283284       -6.0630188694
 H        -6.6156693316       -1.9108240453       -5.2329190581
 H        -4.7904607460       -3.3797250579       -6.0606437532
 H        -5.4928850246       -3.9947237703       -4.4572689823
 H        -3.9288306528       -4.4379006414       -5.0432231360
 H        -3.3597747588       -2.3591284078       -2.1267533965
 H        -4.1666539274       -3.7857585629       -2.5243417672
 H        -2.4950504888       -3.6801663464       -3.1319508770
 H        -7.8672488991       -0.0784165512       -5.2506209882
 H        -6.9748146637        0.5786542476       -3.9657858733
 H        -7.2596903917        4.4345634536       -8.5461479200
 H        -5.9549156953        3.4426733080       -8.0238521234
 H        -7.1623910056        2.6578685705       -9.1855410738
 H        -8.1159579187        2.1533405913       -3.7224339802
 H        -9.2578918577        2.1060543029       -4.9739312645
 H        -8.6257877490        3.6640367671       -4.2906124947
 H        -6.8816592032        4.8649499519       -5.0885982361
 H        -5.6934778736        3.8086066652       -4.5267821828
 H        -5.8188613217        4.3097164277       -6.2720808627
 Na        1.1485636359        1.2401326037       -1.1715180257
