155

 C         0.5023800648       -9.2341736716        6.2776087074
 C         1.0630756038       -7.8132837867        6.0215934491
 C         1.2913340030       -6.9060464922        7.2812064490
 C         1.5809290043       -5.4351138891        6.9956953696
 C         0.7762459880       -4.8035168060        5.9893055778
 C         0.2150514943       -7.1207364855        8.3685007693
 C         2.6503283776       -7.4598729329        7.9417881800
 O         1.5293987123       -7.5372513072        4.9374532387
 O         2.3125563465       -4.7783652192        7.6889199582
 C         0.4182327268       -3.3239101107        6.4612413425
 C        -0.1323051347       -2.3725542189        5.3106249222
 C        -0.6492359747       -1.0045284289        5.8129343612
 C        -1.4440614063       -0.4193245655        4.6073246467
 C        -0.6462855630        0.0089255837        3.4101786217
 O        -0.1795840886       -2.7621119227        4.2012855558
 O        -2.6114820234       -0.2233502832        4.6013116839
 C        -1.6181950575       -1.1623574291        6.9524925815
 C         0.4542480264       -0.0431672869        6.3240547956
 C        -1.4104243769        1.1677722148        2.8396928139
 C        -0.9126986572        1.6363691366        1.4942420365
 C        -1.4652729236        2.9039008464        0.8411852983
 C        -0.0662354079        3.7194221773        0.6851601918
 C         0.2527891273        4.7942966705        1.6512562609
 C        -2.0004989171        2.6526986758       -0.6158170343
 C        -2.4815703073        3.6910566698        1.6410823378
 O        -0.0840982412        0.9815730433        0.8305392607
 O         0.6422443038        3.3141383360       -0.1934875556
 C         1.6007849932        5.4736004372        1.4652506832
 C         2.6720640958        4.5267632680        2.1151654296
 C         4.2122420490        4.6886467241        1.8768283991
 C         4.7928460210        3.2879473130        1.4675120717
 C         4.6585996410        1.9622267448        2.2433094441
 O         2.2633630908        3.6484196081        2.8220112251
 O         5.4355861716        3.3030806902        0.4669483922
 C         4.6664436522        5.7051514067        0.8054646406
 C         4.8592363133        5.0871785524        3.2260290619
 C         4.9656306914        0.6168606081        1.5631384320
 C         3.9392201461        0.3344080594        0.4838528125
 C         3.9919932495       -1.0281703783       -0.2922900364
 C         3.2189973239       -1.0032895620       -1.6406563404
 C         3.9977138246       -0.8946792609       -3.0706578966
 C         5.3798072592       -1.4906769560       -0.5955765790
 C         3.1944372939       -2.1012393376        0.4943804728
 O         3.0264586746        1.1143076580        0.3424657842
 O         1.9867009725       -1.0768209480       -1.6165548536
 C         2.9969972406       -0.7490171757       -4.2755787791
 C         2.4459783980        0.7464175071       -4.1697326403
 C         1.3024117672        1.1859689106       -5.1857279632
 C         0.0393456992        0.7339897445       -4.3574885476
 C        -1.0236193244       -0.1162014804       -5.1075293721
 O         2.7384515263        1.3979971805       -3.2083824524
 O        -0.1568309456        0.9498735300       -3.1647955383
 C         1.2712599989        2.7048569692       -5.2745864288
 C         1.4958209391        0.6591765183       -6.5850196214
 C        -2.1644568953       -0.5989457449       -4.2572572045
 C        -3.0171987590       -1.5960371689       -5.0637279906
 C        -4.0639178256       -2.4641646627       -4.2988780351
 C        -5.1614595204       -1.3954311822       -4.0242219513
 C        -6.1064690207       -0.9682343227       -5.0670547363
 C        -4.3682748305       -3.5020316799       -5.3063504516
 C        -3.4700649786       -3.0379482558       -2.9685717121
 O        -2.9520719525       -1.5496304900       -6.2582074149
 O        -5.0358886675       -0.6950310053       -3.0147677173
 C        -6.8549717238        0.3155403936       -4.7543519899
 C        -6.2967898774        1.4399604799       -5.6316410634
 C        -6.9776537615        2.8252404879       -5.6380491137
 C        -7.6993215067        2.8927457008       -7.1409725133
 C        -7.0687816571        3.7308623776       -8.2839258377
 O        -5.2942878910        1.3035402652       -6.3107264384
 O        -8.8208424250        2.3917936488       -7.1989961166
 C        -8.1976832153        2.9323779453       -4.6587000019
 C        -5.9789447573        3.9731018494       -5.2923780166
 H         0.8028450788       -9.6312593335        7.2430513399
 H        -0.5777693589       -9.2065573624        6.2610319614
 H         0.9665677348       -9.7820180334        5.5024356637
 H         1.3749857711       -4.8219610565        5.0546590834
 H        -0.2281480779       -5.2400891059        5.8549718282
 H        -0.7941073615       -7.1174034808        7.8972126192
 H         0.3104287875       -6.4191772407        9.1130219186
 H         0.3636158908       -8.1130540779        8.8439507450
 H         3.4291969023       -7.3205597785        7.2093794700
 H         2.8143860149       -7.0304230302        8.9499782221
 H         2.4237636210       -8.5420492633        8.1904847371
 H        -0.4105422838       -3.3820821395        7.1775145957
 H         1.2637668321       -2.9214374912        6.9271152577
 H         0.3424546331        0.3429386928        3.7186699568
 H        -0.5411004599       -0.7762602934        2.6735706284
 H        -2.0468510690       -0.2358106964        7.2660659686
 H        -1.0806499323       -1.5307137316        7.8711321884
 H        -2.3320999555       -1.8971241446        6.7345173830
 H         0.9703570373       -0.4523062140        7.1636843089
 H         1.3167195260        0.1656908134        5.6571092403
 H         0.0561054949        0.8996119857        6.7163181334
 H        -1.2304987178        2.0127994477        3.5835995681
 H        -2.4098797014        0.8839746004        2.7912171720
 H        -0.6159253239        5.4557677860        1.8106669589
 H         0.2173712741        4.2670515809        2.6251278131
 H        -1.0835408059        2.2937878456       -1.1974682733
 H        -2.4001219656        3.6293388748       -1.0118798222
 H        -2.7648902302        1.9228172836       -0.5814105871
 H        -3.2709691049        2.9322964557        1.7784404583
 H        -2.0553525370        4.1317235113        2.6085837791
 H        -2.7603992405        4.4821014844        0.9631086558
 H         1.7576369429        5.7078106366        0.3703603366
 H         1.5545799348        6.4225944371        1.8879721390
 H         5.2720992120        2.0760260770        3.1657129553
 H         3.7168065156        1.9000199119        2.7280913224
 H         3.9299363429        5.6103124133       -0.0312952697
 H         5.6647801044        5.4319207783        0.4643230437
 H         4.6788740421        6.7567855288        1.1155805309
 H         4.6588087781        6.0689800521        3.6347861469
 H         4.5964127946        4.3520502430        3.9965498277
 H         5.9533265285        5.0018310739        3.0579423496
 H         4.7514971606       -0.1932902269        2.2730207061
 H         5.9751169350        0.5294303130        1.0927556689
 H         4.7245520648       -0.0811833307       -3.0080854848
 H         4.6366802191       -1.8369554531       -3.1386475893
 H         5.8905538650       -0.8671533913       -1.3465105465
 H         5.3088599081       -2.4248020544       -1.0635660295
 H         6.1178773271       -1.4434216456        0.3096510428
 H         3.2778578163       -2.9989531102       -0.0343141175
 H         3.7368322563       -2.2425203014        1.4801514781
 H         2.1777735274       -1.8087696461        0.6770248583
 H         3.5393178393       -0.7532897119       -5.2604093719
 H         2.2354219034       -1.4873749690       -4.1539715684
 H        -1.4544229499        0.4872749601       -6.0025153120
 H        -0.6031739732       -1.0792036281       -5.5528389353
 H         1.3645976717        3.0445070599       -4.2607021141
 H         0.3921322605        3.0548783642       -5.7036965112
 H         2.0329485201        3.0102767720       -5.9646555313
 H         0.7826048810        1.1798144984       -7.3079466129
 H         2.4687565004        0.8977944100       -6.9695388452
 H         1.3695886835       -0.4779796665       -6.7751656954
 H        -3.0026629182        0.1130562106       -4.1181504862
 H        -1.8877000337       -0.9467868542       -3.2631976748
 H        -5.5235585935       -0.9984090581       -5.9547463273
 H        -6.9693886895       -1.6228752185       -5.3850678536
 H        -4.7859971486       -3.0691451954       -6.1795463483
 H        -4.9691597799       -4.2688622309       -4.8071913271
 H        -3.4892963163       -3.9614704173       -5.7422270861
 H        -3.0995949231       -2.2676960315       -2.2555828161
 H        -4.2942987491       -3.5503072309       -2.3885574056
 H        -2.7780457941       -3.8396429120       -3.1798651575
 H        -7.9186733371        0.2982914665       -4.9743089572
 H        -6.9036561251        0.4974033600       -3.6845752954
 H        -6.9837443517        4.7312244509       -7.8060230421
 H        -5.9997093017        3.4483431856       -8.2379169972
 H        -7.4934385504        3.5228150005       -9.2446562259
 H        -7.9844614829        3.0423507359       -3.5748581506
 H        -8.8683163881        2.0646810818       -4.7475290790
 H        -8.7863320895        3.8773930060       -4.9100967149
 H        -6.3906078381        4.8886830876       -5.5500576464
 H        -5.7912571057        4.0701974303       -4.2356607584
 H        -5.1417654849        3.9328962070       -5.9573832753
 Na        1.3632425469        1.3243623171       -1.2703195058
