155

 C        -3.7206552163        4.4934281405      -10.6161863192
 C        -3.4857528204        3.7697607180       -9.3135458606
 C        -4.3169645076        4.3864840884       -8.1391068495
 C        -4.1937621257        3.4352697741       -6.9037592064
 C        -2.8379036984        3.1328742627       -6.3221746528
 C        -3.5661565763        5.7289146277       -7.7904287747
 C        -5.7790931190        4.5372581773       -8.4969902123
 O        -2.7305413947        2.8243473664       -9.2772790794
 O        -5.2264766890        2.9982106072       -6.2431579073
 C        -2.6081327856        2.2274136978       -5.1169906478
 C        -1.1830984331        2.3527103210       -4.9317607896
 C        -0.5345907142        1.5961500888       -3.5849072197
 C        -1.2981973856        0.3447686800       -3.1353418722
 C        -0.7443489099       -1.1064523969       -3.7120493652
 O        -0.3568807508        2.9413602455       -5.6882465147
 O        -2.0746303835        0.3270462690       -2.1975153907
 C         0.9335485609        1.4343561341       -4.0660953388
 C        -0.7104656520        2.6860926506       -2.3950650845
 C        -1.8919670224       -1.7072049121       -4.5422361839
 C        -3.0386662077       -2.2802110482       -3.7685036488
 C        -4.5186698798       -2.1624588618       -4.2694720159
 C        -5.4697249892       -1.3180544699       -3.4977192661
 C        -7.1593157656       -1.6114545400       -3.4683365595
 C        -4.5543723836       -1.5581114133       -5.7278152063
 C        -4.9807941526       -3.6398846159       -4.2745841025
 O        -2.8318776385       -2.8468748930       -2.7071758994
 O        -4.9995785546       -0.4112161662       -2.7865808197
 C        -7.9044953242       -1.1483013008       -2.2601857105
 C        -6.8838088478       -1.1211180086       -1.0537095348
 C        -6.9859614392        0.2636044993       -0.2871023995
 C        -5.8552061001        0.1260066354        0.8523339824
 C        -6.2535875631       -0.8452104759        1.9676086056
 O        -6.0680931475       -1.9681016143       -0.8921322492
 O        -4.8446629350        0.7948731644        0.7531454566
 C        -6.6377858791        1.4238266775       -1.1449089428
 C        -8.2709268514        0.5438525136        0.5630301103
 C        -5.0745416477       -1.3983872233        2.7077262901
 C        -4.4141021118       -2.6088642485        2.2259966832
 C        -4.1808038842       -3.7982166203        3.3434097879
 C        -3.3272672165       -3.0806671469        4.5134390906
 C        -1.9267968038       -3.4484780362        4.7455466724
 C        -5.5937065006       -4.1814894070        3.7640114726
 C        -3.3986843321       -4.9737508442        2.7947331821
 O        -3.9379910529       -2.7857196320        1.1201538546
 O        -3.8349191378       -2.2959533230        5.2520859426
 C        -1.1561950600       -2.3122639122        5.2759669933
 C         0.0082761867       -2.9339306288        6.1674268052
 C         1.1003823421       -2.0716148445        6.8413065374
 C         2.0354406329       -1.4653565554        5.7585098573
 C         3.4299186521       -2.2808805394        5.4086599622
 O        -0.0281750899       -4.1394995798        6.4292000912
 O         1.8506973158       -0.4213498715        5.2329405759
 C         0.4325688149       -0.9848627923        7.5875216879
 C         1.8672023671       -3.0731671930        7.8043799798
 C         4.2127341326       -1.9017210697        4.1730650446
 C         5.3050498539       -0.7417510085        4.2871148661
 C         5.5676121077        0.2454847678        3.0200469727
 C         6.9185812430        1.1324611645        3.1438194708
 C         8.2541918778        0.4167719954        3.1978792220
 C         5.6502115639       -0.5268502579        1.6328177045
 C         4.4965839714        1.3491284252        3.0704972956
 O         6.1526889669       -0.6100702040        5.2073531878
 O         6.7643719729        2.2948846626        3.4231179621
 C         9.5045101313        1.5428104778        3.3584826808
 C        10.7416439140        1.0422142418        2.6392695902
 C        11.9062864933        2.0173473259        2.2994831305
 C        11.2608849730        3.4561405590        1.7275934868
 C        10.4441678879        3.4072305007        0.4716429493
 O        10.7981618548       -0.1594742497        2.3925117849
 O        11.5968884867        4.4492555613        2.1691936004
 C        12.5431189167        2.4693164694        3.6293809680
 C        12.9871134063        1.2642699526        1.5252511286
 H        -4.4332736504        3.8968713984      -11.2493521509
 H        -4.0070296378        5.6192599226      -10.5367989545
 H        -2.9018500526        4.5594518417      -11.3224615547
 H        -2.1921627101        2.7563923117       -7.1843396666
 H        -2.5237026657        4.2009329030       -6.0980066169
 H        -3.0511201642        5.7091971655       -6.9233557405
 H        -4.1723695661        6.6787149567       -7.8515208779
 H        -2.9661891033        6.1420435682       -8.6551746341
 H        -6.0841171741        4.9546290103       -9.4801569687
 H        -6.2912895600        3.5578333367       -8.5913860538
 H        -6.2485010327        5.0927568146       -7.6978751207
 H        -3.1264502105        2.6259518217       -4.2459078382
 H        -2.8066664462        1.2150953813       -5.3529123458
 H         0.1022264238       -1.1146572529       -4.4005266170
 H        -0.5440014033       -1.6853030137       -2.8648984087
 H         1.6451783046        0.7484667773       -3.4696129693
 H         1.2995008072        2.4886955883       -4.0230915040
 H         0.9587790169        0.9064557934       -4.9788209382
 H        -0.1415920614        2.5209340686       -1.4966197770
 H        -0.4469261310        3.7275715119       -2.6841315602
 H        -1.8323112923        2.6936217972       -2.0501678416
 H        -1.6393080827       -2.5870434499       -5.0914665786
 H        -2.2226148951       -0.8202786576       -5.2585209971
 H        -7.6027211080       -1.3816101062       -4.4879174701
 H        -7.0524040041       -2.7336933353       -3.3869663605
 H        -4.4034537967       -0.4213609196       -5.7705225411
 H        -5.4819640770       -1.6736611836       -6.2271060528
 H        -3.8297713282       -2.1402429459       -6.3131957645
 H        -5.7124690266       -3.7977756651       -4.9919327175
 H        -4.1485846130       -4.3031448537       -4.4078395512
 H        -5.3973387569       -4.0305534766       -3.3823357239
 H        -8.3354288697       -0.1695517507       -2.4070723070
 H        -8.6355333157       -1.8840991834       -2.1131710766
 H        -6.8850686696       -0.3680377473        2.6447680550
 H        -6.9503891345       -1.5683539992        1.6322142560
 H        -7.3688202029        1.5649313971       -1.9282986316
 H        -5.6694314166        1.3544051013       -1.6331013844
 H        -6.6851269878        2.3927951635       -0.6319044299
 H        -8.9284864139        1.1089087693       -0.0368454430
 H        -8.6593354946       -0.4902231314        0.7534508355
 H        -8.1846083338        1.0953357413        1.5327527293
 H        -5.4174981145       -1.5988410007        3.7722310387
 H        -4.3261788992       -0.6403112237        2.7827173227
 H        -1.7761515174       -4.4079043527        5.3916058020
 H        -1.3920699633       -3.7846042496        3.8296172828
 H        -6.3390919652       -3.5681250661        3.2339462360
 H        -5.5690680441       -4.1514465516        4.8236290642
 H        -5.7456597839       -5.1984736615        3.5431919779
 H        -3.9440990361       -5.4892687387        2.0126912160
 H        -2.5921462136       -4.5319680303        2.2054101377
 H        -3.0483627606       -5.7355354015        3.5251257408
 H        -0.6151620723       -1.7002986879        4.5606096540
 H        -1.7128941213       -1.6686691875        5.9763419188
 H         4.0500894341       -2.1755229054        6.3168092658
 H         3.0121209535       -3.3831760527        5.3764473284
 H         0.0223901722       -0.1925484466        6.8685335432
 H         1.0760539316       -0.5405916200        8.3344729874
 H        -0.5055091450       -1.1962945980        8.0206670295
 H         2.7107814840       -2.7055295104        8.3122307720
 H         1.2863361826       -3.4092974174        8.6885147806
 H         2.3398660471       -3.8644503444        7.2972818542
 H         3.5507177246       -1.6670655565        3.3431269039
 H         4.8596807084       -2.7967887548        4.0155359910
 H         8.1216515582       -0.3407427894        3.9945357560
 H         8.5341367817       -0.1943707791        2.3005234236
 H         5.5959052921       -1.6496601479        1.5513190225
 H         6.4568664843       -0.1775936086        1.0372111742
 H         4.9250061430       -0.0706349081        0.8674452747
 H         3.6041130038        0.8956933269        2.6347175801
 H         4.6169349771        1.8172452404        3.9781162896
 H         4.7680648979        2.0400853564        2.2364115991
 H         9.2539503403        2.4438681072        2.8086401038
 H         9.6198642639        1.7671487668        4.4491932824
 H        11.0453319583        2.8433756070       -0.2762415973
 H         9.4221648516        3.0930021877        0.6142996749
 H        10.3082676873        4.3683636023       -0.0422614919
 H        12.0061891717        3.3445618023        3.9904695447
 H        13.6146733204        2.6749293041        3.5112722981
 H        12.5459297168        1.8110435864        4.4637605794
 H        13.7642937314        1.8976185849        1.1731874155
 H        13.4812965928        0.5119076688        2.1989021460
 H        12.5614009912        0.7573533938        0.7067556593
 Na       -3.6080378730       -1.4116755489       -0.8285068663
