155

 C        -4.3047069727        4.5435580062      -10.9094713240
 C        -3.8737464888        3.9864730158       -9.5879532749
 C        -4.6021847160        4.4776780621       -8.2435024491
 C        -4.3451832345        3.3362910246       -7.1690832145
 C        -2.9739088206        3.2039134284       -6.5265129425
 C        -4.1870157329        5.9213041731       -7.9109081475
 C        -6.0988262029        4.5891661730       -8.6157645246
 O        -2.8827006546        3.2739356889       -9.5099571795
 O        -5.2757504606        2.4706262561       -7.0518520588
 C        -2.8015116967        2.4345171464       -5.1851697531
 C        -1.1880570430        2.4385369481       -4.7134696181
 C        -0.6308942419        1.7602411582       -3.3143002562
 C        -1.4740652511        0.3776974807       -2.9414343011
 C        -0.9683521068       -0.8918802144       -3.5322422863
 O        -0.3617820618        3.0378171464       -5.3449500154
 O        -2.1576589650        0.3848635333       -1.9735466246
 C         0.8458136935        1.4041035106       -3.6480439183
 C        -0.8312358214        2.6083004569       -2.0958786403
 C        -1.9875751681       -1.5805655654       -4.3934258528
 C        -3.1044842099       -2.3957735825       -3.8323689870
 C        -4.5499757541       -2.5321377402       -4.4532496099
 C        -5.3783041669       -1.7509338827       -3.2898630242
 C        -6.9917870588       -1.6076456760       -3.4240771387
 C        -4.7605443134       -1.7041798097       -5.7447970278
 C        -4.9940549691       -3.9792795429       -4.4895367530
 O        -2.9152006145       -2.8207327665       -2.6956478807
 O        -4.8840508637       -1.0305372596       -2.3881955169
 C        -7.5660015641       -0.6929349499       -2.2982739313
 C        -6.7646105703       -0.7381573728       -0.8472001413
 C        -6.9550895105        0.6648478978        0.1326694621
 C        -5.7217846317        0.4695578410        1.0292931360
 C        -5.8866023290       -0.1457154199        2.3819049311
 O        -6.3218748367       -1.7137626502       -0.4509474489
 O        -4.6828117939        0.8422746518        0.5961226767
 C        -6.6831868910        1.9556795510       -0.6044806572
 C        -8.4366192793        0.5245972163        0.5423714923
 C        -4.5984736954       -1.0174697950        2.7766811415
 C        -4.2043396388       -2.4069453033        2.3160079043
 C        -4.2409902128       -3.5139279840        3.4600901606
 C        -3.1664242693       -3.1244894824        4.6215333684
 C        -1.7627397338       -3.7039459256        4.7470895162
 C        -5.6028584813       -3.5695744996        4.2740269048
 C        -3.8948662998       -4.8164668702        2.8257222050
 O        -3.5386693156       -2.6757307404        1.2966636844
 O        -3.5355387197       -2.3573437674        5.5005593746
 C        -0.9252058674       -2.6301220659        5.4179369985
 C         0.2282563734       -3.2422382768        6.3929240571
 C         1.4174114519       -2.1358817217        6.8955225576
 C         2.0794833152       -1.5945502298        5.6711894487
 C         3.6019596508       -2.0801482273        5.3179185378
 O         0.3864432942       -4.4062528939        6.6673012032
 O         1.4183999064       -1.0971692010        4.8410138751
 C         0.6675593151       -1.0049317841        7.6208159249
 C         2.3882115156       -2.8676992738        7.7798850452
 C         3.9466142486       -1.5515792464        3.9652941790
 C         5.1059549506       -0.5334562310        4.1287664590
 C         5.5482081762        0.0896471670        2.8205651874
 C         6.8569049093        1.0306847335        3.1214559374
 C         8.1921017285        0.3304656516        3.2791587059
 C         5.8823956469       -0.8742672503        1.6298123390
 C         4.4511565271        1.1737072195        2.3750551034
 O         5.6171666714       -0.3241043623        5.2285879227
 O         6.6636204076        2.2190795608        3.1439643395
 C         9.5689580373        1.1562319443        3.2777668639
 C        10.5964006007        0.7586480308        2.1804895913
 C        11.9951509553        1.7203602688        2.1958599065
 C        11.5930188061        3.1013452512        1.6360630076
 C        10.6561334909        3.3756698733        0.4938524173
 O        10.5126801503       -0.0785407153        1.3503665555
 O        12.1335330753        4.0734033043        2.0194254821
 C        12.4910162981        1.7262780775        3.6785960415
 C        13.2080008101        1.1793942364        1.3104228809
 H        -5.2722480792        4.2364270920      -11.2953011401
 H        -4.2698525665        5.7142314429      -10.9350987429
 H        -3.6232907658        4.2292703135      -11.7029171609
 H        -2.3948445539        2.5993931808       -7.2981822763
 H        -2.5492161498        4.1779395176       -6.5237761545
 H        -4.9696930336        6.6590060247       -7.7807576083
 H        -3.5250283490        6.4480817398       -8.6184554834
 H        -3.6104928145        6.0150794508       -6.9045984383
 H        -6.3455211549        5.2647002621       -9.4776763484
 H        -6.4611852561        3.6670985125       -9.1284715430
 H        -6.6360738004        4.5528521876       -7.7306813824
 H        -3.3081886717        2.7647211372       -4.2780528976
 H        -2.9204742688        1.3744728226       -5.3104275692
 H        -0.1559737042       -0.7352388865       -4.2211770006
 H        -0.6882244271       -1.5339760791       -2.7598565765
 H         1.4448993163        1.2819043398       -2.7645563201
 H         1.3510761863        2.3360376747       -3.7616901936
 H         0.9102245025        0.6584755821       -4.3792272769
 H        -0.8621668360        2.0228885131       -1.1902817046
 H        -0.2147883434        3.5610546847       -2.0452005227
 H        -1.8857472060        2.9902961130       -2.1175080007
 H        -1.4115775469       -2.3129670971       -4.8980279688
 H        -2.4210933066       -0.9212944089       -5.2804107495
 H        -7.1569612993       -0.9671575010       -4.3456458232
 H        -7.4688442906       -2.5827507579       -3.7347433050
 H        -4.4723149582       -0.6501903151       -5.5140268392
 H        -5.6390610676       -1.7847215102       -6.2139380451
 H        -3.9990296541       -2.0011105302       -6.5183965215
 H        -6.0203672766       -4.0308479705       -4.2975706222
 H        -4.7718467869       -4.5956203608       -5.4067919463
 H        -4.5327415050       -4.5932087996       -3.7478520811
 H        -7.4487415109        0.2860515520       -2.7442541126
 H        -8.5945474872       -1.0142074513       -2.0990360607
 H        -6.0589921692        0.5534296273        3.1600625937
 H        -6.7681165396       -0.7167601618        2.3674363294
 H        -7.3732643659        2.2573864263       -1.3241360073
 H        -5.7024471593        2.1033047533       -1.1183338032
 H        -6.7125810163        2.6845672488        0.1677595539
 H        -9.0815186163        0.2181840626       -0.1981906942
 H        -8.4062239973       -0.1806638140        1.3764379949
 H        -8.7455494102        1.4057808375        1.0147245124
 H        -4.7661134783       -1.2278527759        3.8717700956
 H        -3.6942262674       -0.3431181098        2.6301370303
 H        -1.8861009342       -4.5562284531        5.4598097617
 H        -1.3026630902       -4.0349158563        3.8134210570
 H        -5.7986451399       -4.5941170744        4.5796914406
 H        -6.3570249389       -2.9646079733        3.7318536733
 H        -5.3924051298       -3.0890618820        5.2384775823
 H        -4.3933172277       -5.0676700327        1.9303635499
 H        -2.8461624482       -4.8395353152        2.4692371663
 H        -4.1020069795       -5.6664195061        3.4986900647
 H        -0.4574651242       -1.8810818654        4.6995102556
 H        -1.5789574452       -2.0913890884        6.0810757841
 H         4.2192118701       -1.6454007820        5.9961971180
 H         3.6347499407       -3.2250492728        5.3801296055
 H        -0.2147674277       -0.5475818849        7.0720369500
 H         1.3478346513       -0.1554570839        8.0216129554
 H         0.2064638729       -1.4024179283        8.5682980487
 H         3.1869601501       -2.3697158607        8.1469482291
 H         2.0118048026       -3.3456233851        8.6734723339
 H         2.8251605476       -3.6456221676        7.2043469039
 H         3.0443464120       -1.0787105377        3.5373353276
 H         4.1810596334       -2.4740821339        3.3799314028
 H         8.0938451287       -0.2867285267        4.1544768342
 H         8.1607353560       -0.5051818291        2.5913543865
 H         6.5589886492       -1.6763754200        2.0228943929
 H         6.4270067064       -0.5446633464        0.8229038156
 H         5.0729296525       -1.3717584761        0.9871420188
 H         3.5270836833        0.6704451068        2.2240250448
 H         4.4907926952        1.9431979986        3.1056063181
 H         4.7526911992        1.5872917763        1.4579228659
 H         9.2606854650        2.1995825966        3.2466336249
 H         9.9677999457        1.1694018978        4.3428797787
 H         9.9928940047        2.5004715051        0.1645050259
 H         9.9381053925        4.0969046734        0.7566205745
 H        11.3020658838        3.5042954569       -0.4813199862
 H        11.8023242657        2.0750742236        4.4038565367
 H        13.3135819859        2.4450427247        3.8483339253
 H        12.6663453897        0.7050629731        4.0566572489
 H        14.1110432345        1.6591025383        1.6308369584
 H        13.3999466006        0.1382019238        1.5317010710
 H        13.0380669643        1.2277491106        0.2970176418
 Na       -3.3532761841       -1.2840624888       -0.7699505066
