155

 C        -5.1031291238        4.2399733550      -10.4785586375
 C        -4.3251079669        3.9811002224       -9.1802977444
 C        -5.1504923774        3.6072318689       -7.7790610629
 C        -4.3169425907        2.6241856686       -6.9146207442
 C        -2.9953175618        3.2124133929       -6.2655515760
 C        -5.3533909063        5.0090099405       -7.1373795113
 C        -6.5686599431        2.9665763089       -7.8828951579
 O        -3.1371110806        4.2742215077       -9.1488586142
 O        -4.6715719882        1.5177879886       -6.7946771000
 C        -2.2298827751        2.0332822101       -5.6686127485
 C        -1.0057829313        2.5273924152       -4.7449384510
 C        -1.2587732086        2.3626651428       -3.3574707761
 C        -1.4920989646        0.8367217125       -2.8764398604
 C        -1.4810578688       -0.3302766903       -3.7938013147
 O         0.0128182599        2.9044137115       -5.2129925508
 O        -1.7464653989        0.6006782171       -1.7329766451
 C         0.0156094137        2.8276884941       -2.5568326886
 C        -2.4358813342        3.1713337867       -2.8315079979
 C        -2.8143631563       -1.0012708602       -4.2750805917
 C        -3.3692461827       -1.9842972509       -3.2856471633
 C        -4.9584340488       -2.3508450760       -3.2779166767
 C        -5.7679721427       -1.1968512369       -2.7576738266
 C        -7.3433899372       -1.2441107483       -2.6998287358
 C        -5.2691493278       -2.6372988658       -4.7801886227
 C        -5.4298823365       -3.6178456849       -2.4733297217
 O        -2.7386384147       -2.4175033822       -2.3453785585
 O        -5.2761584567       -0.1719168521       -2.4245114641
 C        -7.6615560593       -0.1028771794       -1.7390239486
 C        -7.3446403860       -0.4296992382       -0.2858701799
 C        -6.8824194019        0.6653127283        0.6706205584
 C        -5.2871888392        0.5542008545        1.0423425933
 C        -4.7986673143        0.3856591140        2.4634387075
 O        -7.4890438927       -1.5906447902        0.1633074673
 O        -4.4958658443        0.4551022111        0.1116706049
 C        -7.0225905970        2.1496415377        0.1596649856
 C        -7.9278020366        0.4743970916        1.8358018705
 C        -3.3517625552       -0.3011984451        2.5114924643
 C        -3.3157940745       -1.8276668786        2.3058371008
 C        -3.8177174667       -2.7011345530        3.4897804750
 C        -3.0208460088       -2.1397666547        4.6681449072
 C        -1.9215940751       -3.0424004586        5.3106187926
 C        -5.3285625025       -2.4809967596        3.6855972064
 C        -3.4043128321       -4.1163945238        3.0640716241
 O        -2.9070964349       -2.4018756922        1.2884230798
 O        -3.2673496960       -1.1026224695        5.1838106090
 C        -0.8276117656       -2.2690054900        5.9828648523
 C         0.2389143759       -3.4213623239        6.2617438266
 C         1.6448117831       -2.6964868816        6.5012130042
 C         2.2167110598       -2.1300459277        5.1043973846
 C         3.7457539721       -1.8991196220        5.0462465575
 O         0.0131620674       -4.6416746006        6.1112171410
 O         1.4853017044       -1.9090887731        4.1421361555
 C         1.6295129365       -1.5406852820        7.4039913062
 C         2.6210786546       -3.7434294494        7.0591509011
 C         3.9665228352       -1.2952875068        3.6194263773
 C         5.1290438403       -0.3101025445        3.3382087247
 C         5.7115123911       -0.0566794570        1.9385866666
 C         7.1549069584        0.6737371728        2.0649636853
 C         8.1786033408       -0.0174169215        3.0452404620
 C         5.8009132775       -1.2353792987        1.0392169558
 C         4.7922801633        1.0057491437        1.1983685299
 O         5.5830347863        0.2892223196        4.3094080523
 O         7.4782924725        1.7534920434        1.5767425025
 C         9.6452151825        0.7217465329        3.0240383088
 C        10.3888513463        0.6082203697        1.6627497765
 C        11.9768301769        0.6695589170        1.6252471151
 C        12.0396721096        2.1849210020        1.5754524960
 C        12.3326349245        3.0198641221        0.3845561110
 O         9.7365064695        0.4044162498        0.6726797295
 O        11.8359565939        2.8919381454        2.6199405353
 C        12.7058881825        0.0277222203        2.8261731035
 C        12.4441606347       -0.1077194282        0.2766230563
 H        -6.0886664888        3.7564764287      -10.5598284729
 H        -5.2937515954        5.2843350577      -10.5171827818
 H        -4.4768155747        4.0114829361      -11.2356371456
 H        -2.3683149495        3.6755274110       -7.0009695263
 H        -3.2701622238        3.9426121856       -5.5875702560
 H        -5.8826115073        5.4825788505       -7.9043854724
 H        -4.4146945332        5.3962071042       -6.6959407173
 H        -5.9434894109        4.9878926564       -6.3010311041
 H        -7.0537886971        3.7507933235       -8.4408139187
 H        -6.5942233632        2.0196178938       -8.3355473199
 H        -7.0272247669        3.0245213870       -6.8232629758
 H        -2.9146303197        1.4886169844       -4.9800874676
 H        -1.6688391702        1.3317531998       -6.4084823834
 H        -1.0061554444        0.0717591231       -4.6907953903
 H        -0.6594285184       -1.0861034210       -3.5324283309
 H         0.1525721121        2.4209454418       -1.5866635290
 H        -0.0026020102        3.9490717639       -2.7603903942
 H         1.0068020455        2.3834326202       -2.9598436871
 H        -3.2640493195        3.2595564464       -3.5959449137
 H        -2.7159837531        2.6162870966       -1.9481861384
 H        -2.0299951523        4.1497414175       -2.7008523227
 H        -2.5629376303       -1.6475983251       -5.1600522561
 H        -3.5700995486       -0.3300897577       -4.6431864633
 H        -7.6729826776       -1.1514647767       -3.7199575932
 H        -7.6518250214       -2.2136576855       -2.3813326849
 H        -5.0395435358       -1.7120871639       -5.3425992877
 H        -6.3131015638       -2.9449349024       -5.1049136569
 H        -4.5554601308       -3.3451451897       -5.1315947883
 H        -6.4828404952       -3.6559709944       -2.7756641269
 H        -4.9045013207       -4.5021528176       -2.5222251087
 H        -5.3784473587       -3.3562950101       -1.3847826612
 H        -7.2216334989        0.8209793024       -2.0777612108
 H        -8.7765789702        0.1492895163       -1.7358503427
 H        -4.7766325588        1.4894397284        2.7547911846
 H        -5.4966536831       -0.2640148428        3.0487498429
 H        -8.1164709577        2.4184115845        0.2203394202
 H        -6.8255994373        2.1986967768       -0.8709179360
 H        -6.2672161411        2.8213309907        0.5089152176
 H        -9.0265257988        0.5390651497        1.5429817738
 H        -7.9766454503       -0.4379102592        2.4264856356
 H        -7.7172856602        1.2390147599        2.6323661218
 H        -2.7279927340       -0.2444059276        3.3654673112
 H        -2.8352160603        0.1336129463        1.6381971044
 H        -2.4371398042       -3.7477638432        5.9895877630
 H        -1.5279586845       -3.5996637766        4.4969430950
 H        -5.7037704231       -3.1646324721        4.4265729780
 H        -5.8946316445       -2.5733598087        2.7247327172
 H        -5.4622253941       -1.4572124621        4.0307641510
 H        -4.0318207144       -4.4672233852        2.2585361546
 H        -2.3991593714       -4.2475731318        2.6374196548
 H        -3.4973811736       -4.7956578080        3.9055756885
 H        -0.3466770450       -1.5484588802        5.2170824186
 H        -0.9875977077       -1.6966974400        6.9255138598
 H         4.0065964864       -1.3530879580        6.0116885176
 H         4.3725300001       -2.8315803020        5.0889289609
 H         1.3583205511       -0.6743922066        6.8471987126
 H         2.5835427918       -1.5764122091        7.8422147697
 H         0.8784152405       -1.6254911557        8.1910197572
 H         3.6887749532       -3.3078844988        7.2638597774
 H         2.1942167302       -4.0059559465        8.0268432555
 H         2.8127815563       -4.5483043106        6.3001813587
 H         3.0361459041       -0.7333901640        3.4383423493
 H         4.0415961574       -1.9144795218        2.7723567906
 H         7.8542726723        0.1481364941        4.0870158308
 H         8.3553015873       -1.1030943963        2.7982177321
 H         6.1840393906       -2.1230933770        1.5113248397
 H         6.2532562136       -1.1364674788        0.0069436955
 H         4.8459855828       -1.3918592143        0.6602490454
 H         3.8690968256        0.4281149969        0.9315749916
 H         4.7826357300        1.9365547467        1.7834484666
 H         5.3994678273        1.1151423282        0.1944122421
 H         9.7261980876        1.8230197396        3.2244111565
 H        10.1477297704        0.2245925243        3.8735981517
 H        12.8406620573        2.5399884433       -0.4466228764
 H        11.4487510470        3.5955732079        0.1924571947
 H        13.0841074632        3.7064133171        0.6041253508
 H        13.5997505634        0.6458989299        3.0038857470
 H        13.0192572681       -0.9688029611        2.6132968593
 H        12.1020562830        0.0230999087        3.7473989856
 H        13.3225751512       -0.6841821327        0.6297541167
 H        11.6865734314       -0.7959028338       -0.0397876877
 H        12.8467480609        0.5011035979       -0.6078970024
 Na       -2.7730289613       -1.0495372682       -0.6154769390
