155

 C        -5.1973706563        3.5153686287      -10.4533459937
 C        -4.8606111445        4.0752015560       -9.0623854645
 C        -5.6158253208        3.5068755327       -7.7066508324
 C        -4.6092489505        2.4474574260       -7.1369206744
 C        -3.1950127908        2.9740901751       -6.8002569030
 C        -5.9584572596        4.5079662281       -6.5649186244
 C        -6.9219594661        2.6446684358       -8.0263894636
 O        -3.8644420959        4.8018078069       -8.9069430973
 O        -4.9567323949        1.3377507085       -6.9647507299
 C        -2.4973694259        1.9966340490       -5.7731579979
 C        -1.2541371231        2.4951675998       -4.9970165362
 C        -1.3262279757        2.4678365820       -3.4041291046
 C        -1.6069310894        0.9583037652       -2.8583776556
 C        -1.2774842521       -0.2432657732       -3.7684471406
 O        -0.1269007746        2.5857734997       -5.5263906631
 O        -1.9074938598        0.8180169912       -1.6517105488
 C         0.0467789104        2.9956421927       -2.8020457528
 C        -2.5360839566        3.4956494911       -2.8591145655
 C        -2.6829686587       -1.0469695594       -4.1188430705
 C        -3.1446189617       -1.9555512777       -3.0131688069
 C        -4.7901953587       -2.2430863078       -2.9768366354
 C        -5.5693062308       -0.9322649389       -2.6172889513
 C        -7.1292844894       -0.8423620024       -2.3789522610
 C        -5.2952872619       -2.9248834149       -4.2449736918
 C        -5.1278730527       -3.2774348590       -1.7754555569
 O        -2.4105423805       -2.3865663501       -2.1311985182
 O        -5.0433546837        0.1180329637       -2.2911525421
 C        -7.6807196238        0.0058669487       -1.1600157882
 C        -7.2751238391       -0.1647317566        0.3116204421
 C        -7.0491623136        1.1036300646        1.2858305548
 C        -5.4626704451        1.1140398804        1.5247240704
 C        -4.9191101946        0.7196491506        2.9272310770
 O        -7.2038310055       -1.1891067380        0.8535024696
 O        -4.7364769034        1.1106251517        0.5318388118
 C        -7.3462644493        2.6210095841        0.7494016382
 C        -8.0328431188        1.0100612701        2.4918305243
 C        -3.6094372037       -0.0955452367        2.9932460602
 C        -3.6139327405       -1.4735517913        2.5096290311
 C        -3.8060356630       -2.5670043587        3.6265329940
 C        -2.8629854626       -2.1447616861        4.7767017983
 C        -1.5648120525       -2.9982956473        4.8951057397
 C        -5.2294851882       -2.4446299311        4.0741143599
 C        -3.5317374903       -3.9747356457        2.9910087179
 O        -3.6445311934       -1.7977151390        1.3205377535
 O        -3.1846605121       -1.3167817449        5.6219539447
 C        -0.6182110593       -2.2278784383        5.8682395959
 C         0.4481784284       -3.2424548745        6.4479928427
 C         2.0918763212       -3.0095358028        6.0910529764
 C         2.2329062831       -2.3078885986        4.6916681538
 C         3.4047014130       -1.2717841253        4.5785537853
 O        -0.0610890559       -4.1553389397        7.0159183071
 O         1.4837711325       -2.5408651820        3.7496257438
 C         2.6973950312       -2.0707375303        7.2554446589
 C         2.7645562073       -4.3765738355        6.1476934299
 C         3.7692406627       -0.8398755504        3.1514957465
 C         5.1654423785       -0.2748206026        3.0509115648
 C         5.6669790021        0.2461883474        1.5387697286
 C         6.9663169272        1.0969536640        1.5942185730
 C         8.3593775837        0.3945515327        2.1449396042
 C         5.9941549323       -1.1143095232        0.9224751851
 C         4.5215964514        0.8045098237        0.6148588805
 O         5.9575887390       -0.6303868484        3.9209750306
 O         7.0500142390        2.2504547382        1.2754369755
 C         9.6986554112        0.9601345000        1.5236790793
 C        10.6987742341       -0.1778753840        1.3104755684
 C        12.2808134004        0.1499293187        1.2398578007
 C        12.7013976358        1.6463385798        1.5907108984
 C        12.8450911144        2.6966497690        0.4876573980
 O        10.2509223615       -1.2899073290        1.0748140197
 O        12.9563289050        1.8036203294        2.7832428332
 C        13.0319071789       -1.0047428849        2.0430319481
 C        12.5154966466       -0.1776614809       -0.2651246949
 H        -5.2785192534        4.3925972591      -11.0904055655
 H        -4.5158935764        2.8058475386      -10.9761841578
 H        -6.2167302897        2.9232409990      -10.3718001441
 H        -2.7551319914        3.0761995917       -7.7470407531
 H        -3.4337540409        3.9578197549       -6.2623967762
 H        -6.8440793711        5.0262969328       -6.9762319704
 H        -5.2502569785        5.2805487265       -6.5718444688
 H        -6.3534983778        3.9187212278       -5.6640324578
 H        -7.5887225896        3.3986402636       -8.4539961764
 H        -6.6642371366        1.9098978501       -8.8034935893
 H        -7.1600228737        2.1738970966       -7.0734916059
 H        -3.2159077342        1.5293893030       -5.0818991404
 H        -2.1754591723        1.1778511381       -6.4427440293
 H        -0.9828906408        0.2201623679       -4.6555232602
 H        -0.5835378130       -1.0016527203       -3.3797110291
 H         0.1048001288        2.8178266675       -1.6706989543
 H        -0.1070777258        4.0076355430       -2.7237593135
 H         0.8973345166        2.6376367207       -3.4795021483
 H        -3.2335792771        3.4697857836       -3.6877827911
 H        -2.8747833066        3.2279352525       -1.9134778422
 H        -1.9611772710        4.4751000258       -2.7516572070
 H        -2.3429705022       -1.6749796710       -5.0220828530
 H        -3.3954926668       -0.3757268713       -4.3741207663
 H        -7.3742746356       -0.1507548855       -3.2555425859
 H        -7.6664206813       -1.8472410713       -2.4619414794
 H        -5.2395665084       -2.2088540611       -5.1144575009
 H        -6.3013666962       -3.2473585346       -4.1324956730
 H        -4.6628285750       -3.8359043849       -4.5280359988
 H        -6.1401565084       -3.5701668126       -1.6896594971
 H        -4.6006364827       -4.2014879509       -2.0831476752
 H        -4.8307835207       -2.8271762517       -0.8403833255
 H        -7.5450190899        1.0075758339       -1.4283031030
 H        -8.7465749205       -0.2069260617       -1.0863876190
 H        -4.8694186211        1.6642095310        3.5450692180
 H        -5.6576306735        0.2404915195        3.5752424777
 H        -8.2793003052        2.7881600328        0.2006659472
 H        -6.4703487575        2.7598688706        0.1686640177
 H        -7.3653145933        3.2406672651        1.6502077936
 H        -8.9104288065        1.5615294178        2.4824731383
 H        -8.2523402724        0.0165289548        2.7429085364
 H        -7.5735911122        1.3122245925        3.3901690594
 H        -3.1378354135       -0.0374244150        3.9298153823
 H        -2.9409175678        0.4653117463        2.4780517231
 H        -1.8145846501       -3.9881419522        5.4717356435
 H        -1.2481824246       -3.3083534826        3.9250527910
 H        -6.0160552257       -2.3319340175        3.2827303692
 H        -5.3258448253       -1.5240185969        4.6268172512
 H        -5.5545701729       -3.3431348151        4.6609125205
 H        -4.4494898713       -4.0397940281        2.3441470600
 H        -2.5884371500       -4.0396602322        2.4785921629
 H        -3.6211527856       -4.8381035763        3.6343720616
 H        -0.1284876621       -1.3904451739        5.4352055519
 H        -1.3277472688       -1.8891205984        6.7446089931
 H         3.0602753738       -0.2894509970        5.1409473306
 H         4.1616624952       -1.8056760938        5.2582841064
 H         2.1067745406       -1.0831398253        7.1725765590
 H         3.6959544006       -1.7284637166        6.9847941395
 H         2.5684507549       -2.6729932962        8.1194185696
 H         3.5742101165       -4.1991492563        6.7172799034
 H         2.0788965548       -5.0789953291        6.5532978466
 H         2.9501879319       -4.7222028143        5.1855574959
 H         2.9719053295       -0.1827451419        2.7459584485
 H         3.7786381101       -1.8116345432        2.7826940179
 H         8.5022211477        0.4844119851        3.2480723370
 H         8.3532206745       -0.6545589619        1.8000255967
 H         6.5651066324       -1.8165411906        1.6464582503
 H         6.5061810183       -1.0609830563       -0.0608167383
 H         4.9937538290       -1.6143538947        0.9331577412
 H         3.7532257188       -0.0023636599        0.6330206782
 H         4.0246681514        1.7414481102        0.8926720049
 H         4.9683401374        0.8228867043       -0.3586694503
 H         9.6141700747        1.5030892332        0.5516695800
 H        10.1445716491        1.5173505880        2.3151205000
 H        13.1829148648        3.6027258383        0.8411517186
 H        13.5982381335        2.4308399893       -0.2564267127
 H        11.8461927102        2.7076019837       -0.0934678397
 H        12.3146294737       -1.7289757894        2.5846207597
 H        13.5021978087       -0.5441215071        2.9059607815
 H        13.8208756919       -1.4057148424        1.4047880252
 H        13.4956355914       -0.5715788208       -0.3249342244
 H        11.7632399122       -0.9414034900       -0.6290556113
 H        12.3584178063        0.7061286328       -0.7963727992
 Na       -3.3035221529       -0.4494998529       -0.6136406124
