155

 C        -5.2330229240        3.5147636250      -10.4459713749
 C        -4.9947940862        3.9759644679       -8.9878451011
 C        -5.8324224025        3.3115408639       -7.8056585959
 C        -4.7312755215        2.2738076350       -7.2535621610
 C        -3.3863072885        2.8573507377       -6.6851507201
 C        -5.9336641093        4.5311419888       -6.7220025275
 C        -7.1949747897        2.8016187979       -8.2413406931
 O        -4.2509291360        4.9153462512       -8.7652779004
 O        -4.9649939407        1.0908910943       -7.0210726410
 C        -2.7274808894        1.9001913863       -5.7330457641
 C        -1.2912855725        2.2876449779       -5.0576943527
 C        -1.3412533096        2.3273218330       -3.4990153114
 C        -1.7731647643        1.0400304523       -2.8358990806
 C        -1.3431763828       -0.3030349675       -3.7961635832
 O        -0.2592405060        2.3923517419       -5.6244827420
 O        -2.1526541506        0.9509516955       -1.7004463450
 C         0.1160270827        2.5804004985       -2.7162912111
 C        -2.5109157864        3.4283290307       -2.9797361093
 C        -2.6313951265       -1.0188626421       -4.2885761418
 C        -3.2016972378       -1.7714244053       -3.0415710001
 C        -4.6490636958       -1.9622066159       -2.7712247311
 C        -5.3255664946       -0.7317164783       -2.2950833345
 C        -6.8359541627       -0.8901989065       -2.0219473030
 C        -5.2368973422       -2.4445086146       -4.0353294844
 C        -4.7314843893       -3.1065361002       -1.7370629339
 O        -2.4597627702       -2.2074390970       -2.1947914965
 O        -4.7097970775        0.2933062899       -2.2002759449
 C        -7.4852243356        0.0662112865       -1.0525892542
 C        -7.2965501047       -0.0989721334        0.4197494602
 C        -7.1267489879        1.1183865197        1.3691026776
 C        -5.6485392398        1.2949379707        1.7998419228
 C        -5.1449046211        0.8048447430        3.2357015163
 O        -6.9782061458       -1.2219967745        0.8785951904
 O        -4.7641027075        1.4590901092        0.9843912744
 C        -7.3451166127        2.4535708767        0.4628620732
 C        -8.1360592862        1.1162708556        2.5898413579
 C        -3.8334644095        0.1029712597        3.0464757444
 C        -3.8295176141       -1.3529320755        2.6168331280
 C        -3.9066068801       -2.5284450914        3.6416042705
 C        -2.8221490014       -2.0457630989        4.7191400769
 C        -1.3188365339       -2.4745917617        4.6689015016
 C        -5.3526859043       -2.6784326592        4.3646885395
 C        -3.6305104379       -3.8500067923        2.8742739638
 O        -3.5846721380       -1.5785709139        1.4509546434
 O        -3.3344054301       -1.4680603883        5.6264130980
 C        -0.4014761036       -2.1111516894        5.9333689615
 C         0.6327843142       -3.1314968766        6.3723667119
 C         2.1679230246       -2.8956966187        6.0330943174
 C         2.3073367127       -2.3097107258        4.6475752562
 C         3.4026691015       -1.2432633146        4.5561535331
 O         0.3057383419       -4.2266690529        6.8252443855
 O         1.6786207652       -2.8218449534        3.7232661892
 C         2.7506517461       -2.2340425598        7.3170087992
 C         2.7576605704       -4.3955183044        5.8868649874
 C         3.6336884266       -0.6456279876        3.0541976156
 C         5.2279949784       -0.4605087831        2.7670769717
 C         5.6603560088       -0.0049305351        1.3234574656
 C         7.0278058367        0.9347572586        1.5723848756
 C         8.2775572669        0.3295418648        2.1418409221
 C         6.0051907445       -1.3660199655        0.5684576237
 C         4.5659704267        0.9765847308        0.8103127735
 O         5.9147790274       -0.4979050743        3.7486614758
 O         6.8065944128        2.0479669347        1.1533575934
 C         9.6317900110        0.8457999001        1.3724538730
 C        10.6637653163       -0.2906876999        1.3236728546
 C        12.3133574028        0.0338986675        1.0433863649
 C        12.9356313490        1.3789295908        1.5280389090
 C        12.7956447192        2.6345798199        0.4877633092
 O        10.3723067301       -1.4427087720        1.4686695344
 O        13.3116118211        1.4930131003        2.7482212269
 C        13.0886714643       -1.0908007910        1.8020402669
 C        12.5519023534       -0.2090551623       -0.5075728689
 H        -6.0367003445        3.9332747055      -11.0073841396
 H        -4.3312705597        3.6608819308      -11.0337539286
 H        -5.2110389353        2.4891225005      -10.4464232902
 H        -2.7376713964        3.0004318705       -7.6208638144
 H        -3.6016141611        3.7757595781       -6.2524075384
 H        -6.9033036971        4.8890578552       -6.6754782175
 H        -5.3437095385        5.3895943062       -7.1748956995
 H        -5.7856071706        4.1519273333       -5.8145554282
 H        -7.6401057255        3.7048718332       -8.6167640645
 H        -7.0310745846        2.0089438161       -8.9116223801
 H        -7.7463986706        2.5331825383       -7.3040494783
 H        -3.4088828534        1.6007632335       -4.8836232741
 H        -2.5600660773        0.9648033550       -6.3219328382
 H        -0.6591909581        0.0082492140       -4.6361307329
 H        -0.9155971358       -1.0267201810       -3.1047250849
 H        -0.0514160186        2.9835859516       -1.7110541047
 H         0.8528978502        3.3943768597       -3.2123035007
 H         0.5008165176        1.5680661312       -2.9061100469
 H        -3.4801590306        3.1068652034       -3.3411016553
 H        -2.3304494418        3.2759852489       -1.8890092416
 H        -2.1524461116        4.3616885101       -3.1619862523
 H        -2.5215292491       -1.6945847852       -5.0757662633
 H        -3.2717457286       -0.0766863813       -4.5673550118
 H        -7.2817173835       -0.6829696656       -2.9581164271
 H        -6.9970677962       -1.8868545761       -1.7297914654
 H        -4.9432731581       -1.7039311386       -4.8088466673
 H        -6.3548255042       -2.3980041907       -4.0323774148
 H        -4.9067918109       -3.3691605291       -4.2518568991
 H        -5.8282434871       -3.3120848396       -1.7332009375
 H        -4.2952232053       -3.9795431075       -2.0077358084
 H        -4.5467513778       -2.6289486227       -0.7668840302
 H        -7.1335973919        1.0925284505       -1.3613665239
 H        -8.6090807512       -0.0868043085       -1.1094045468
 H        -5.3493644795        1.5153867542        4.0388558051
 H        -5.8403825261        0.0255344357        3.6798689321
 H        -8.4063420655        2.4049820934        0.1454607429
 H        -6.6058574897        2.3555338575       -0.3267510993
 H        -7.1954839410        3.3069021164        1.1130529452
 H        -9.2546901561        1.3359865231        2.4361120779
 H        -8.0429414613        0.1109373463        3.0334001891
 H        -7.7939026058        1.7047434484        3.4639495456
 H        -3.1280262257        0.2673333767        3.8896215203
 H        -3.1695988279        0.7130738514        2.2749221173
 H        -1.3020940223       -3.5194927461        4.6235089269
 H        -0.7301743396       -2.1848025464        3.7305434530
 H        -5.9033165536       -3.4201063236        3.8059469108
 H        -6.1303744343       -1.8583125163        4.3094553355
 H        -5.2521930016       -2.9807525192        5.4202604838
 H        -4.4061953390       -4.0428698508        2.2107394032
 H        -2.6269887854       -3.7756613795        2.4455815040
 H        -3.5739412025       -4.6830477019        3.5682079027
 H         0.1956385851       -1.1385026187        5.7759179672
 H        -1.0093172205       -1.9919544259        6.7670997160
 H         3.2130473184       -0.4225962900        5.1599217181
 H         4.2321482103       -1.7876418008        4.9638043379
 H         2.4897402251       -1.2465878129        7.3956196259
 H         3.7959350485       -2.2106325812        7.2030726244
 H         2.3110257527       -2.9381473510        8.0435381563
 H         3.8683716068       -4.3391401231        5.5828798273
 H         2.5657198905       -4.7830762790        6.8885892574
 H         1.9816681131       -4.9639927005        5.3645394686
 H         3.2990299703        0.3760909832        3.0182188351
 H         3.1291795301       -1.4771096114        2.4725972219
 H         8.3634681927        0.7786032533        3.1207521173
 H         8.3748726426       -0.8063075051        2.2341738846
 H         6.6401600431       -1.9935509234        1.0601899605
 H         6.4509123515       -1.0552038951       -0.3722072371
 H         5.1477759931       -1.9798578520        0.6175334820
 H         3.5756388534        0.4590609147        0.7731824399
 H         4.3669322478        1.6290070447        1.6809233855
 H         4.9607874006        1.4906225710       -0.1694420534
 H         9.6036881262        1.0529987910        0.3129066577
 H         9.9714297638        1.6586264482        2.0564504604
 H        13.5289117760        3.3956656840        0.7938844426
 H        13.0508328745        2.3996643223       -0.5173257111
 H        11.7669254394        2.9507489444        0.3121019332
 H        12.7092897365       -2.0307552604        1.4760781566
 H        12.9488654337       -1.0257470250        2.8898773507
 H        14.1625526700       -1.0484822310        1.5756540278
 H        13.2699900495        0.5400916570       -0.9294628616
 H        12.8536675934       -1.1821501403       -0.6051555826
 H        11.5552469022        0.0947246139       -0.9724033319
 Na       -3.4433413676       -0.3043957926       -0.4036289183
