155

 C        -4.3995476367        2.5752843855       -8.9079967709
 C        -5.6446770673        3.4728554749       -8.1846782404
 C        -6.4579734019        2.6952104441       -7.2320995730
 C        -5.8055266101        2.6849060833       -5.8241364363
 C        -4.6452174386        3.7735031930       -5.6263630916
 C        -7.8922654786        3.3147590546       -7.1635259836
 C        -6.6379458641        1.2388977204       -7.5845825368
 O        -5.8776494818        4.6099818785       -8.4809032263
 O        -6.0843070100        1.9251698671       -4.8760589111
 C        -3.8624369183        3.4827996449       -4.3236913479
 C        -3.0600191980        2.1844459629       -4.2834136619
 C        -1.6267864663        2.2342810350       -3.5799362084
 C        -1.6264588052        1.0272279155       -2.4105190189
 C        -1.3105967242       -0.4141225756       -2.7898134699
 O        -3.4485960862        1.0872152282       -4.8035415565
 O        -1.9163533971        1.3344705431       -1.2299535845
 C        -0.5189879859        2.0233688654       -4.5573964742
 C        -1.4328626676        3.5780231882       -2.8767504890
 C        -2.6460966412       -1.1543567248       -3.0434512001
 C        -3.4797768204       -1.3270451608       -1.7407843448
 C        -5.0163393409       -1.8688021038       -1.9087310469
 C        -5.9494118848       -0.8515025522       -1.0231274334
 C        -7.3242239699       -0.6294690461       -1.4652561437
 C        -5.5711450710       -1.8861078975       -3.4013737074
 C        -5.0958259372       -3.3301883556       -1.1269602999
 O        -3.0623579547       -1.1169374104       -0.6311230593
 O        -5.5231511639       -0.3447462012       -0.0041963738
 C        -8.2617020532       -0.1919604105       -0.3126414094
 C        -7.5976689746        0.2309553340        1.0659102150
 C        -7.3115122209        1.8314219400        1.3965176303
 C        -5.9256870722        1.9990924014        1.9310086699
 C        -5.6473066000        1.5440860657        3.3538864467
 O        -7.7512710205       -0.4689402611        2.0238415584
 O        -5.0699650310        2.4949466734        1.2201556802
 C        -7.4570846130        2.6195880415        0.1425063849
 C        -8.4300485283        2.2759171079        2.5954000118
 C        -4.1708836369        1.2726149892        3.7582738285
 C        -3.4601930492        0.1902666723        3.0279983442
 C        -3.4660331566       -1.1870628042        3.5678031835
 C        -2.0649372269       -1.2483391997        4.4842174856
 C        -1.0465510549       -2.4129598429        4.3499225585
 C        -4.6695249390       -1.5129007593        4.4741826810
 C        -3.5284571359       -2.2938042713        2.3875331382
 O        -2.6192133954        0.6097394529        2.2826283150
 O        -1.7871296406       -0.3055397471        5.1803232410
 C         0.1342868992       -2.1929982988        5.2902345572
 C         1.0697260885       -3.3823596021        4.9882362720
 C         2.6366908026       -3.1179699553        5.2191818504
 C         3.2296138027       -2.2319818471        4.0331551780
 C         4.6814154556       -2.1004507080        3.7308360486
 O         0.5851435631       -4.4637617307        4.6189210359
 O         2.3684004346       -1.6228049656        3.3941739927
 C         2.9772135423       -2.3383080460        6.5292346888
 C         3.3934602717       -4.4454750970        5.2194720326
 C         4.8941352078       -1.4477412125        2.3675291416
 C         6.1565488473       -0.6385100706        2.1159483336
 C         6.3038166511       -0.1092885559        0.6364488687
 C         7.7753019434        0.2099228184        0.2486953893
 C         8.9289846766       -0.5251442432        0.8649802915
 C         6.2041142748       -1.2904765268       -0.2919138923
 C         5.3111696293        0.9207698888        0.2022644976
 O         7.1575316933       -0.5834215714        2.8042961787
 O         7.9870236570        0.9656909340       -0.6703158575
 C        10.1140099642       -0.5518986865       -0.1789369505
 C        11.1246227714       -1.5954600864        0.3138734276
 C        12.5244566101       -1.3589119023       -0.1046774234
 C        12.8190340053       -0.1986532299        0.8100921906
 C        13.2671727200        1.2412390081        0.3803114748
 O        10.8590283620       -2.6209977670        0.8184791259
 O        12.9372651099       -0.4160983907        2.0221631654
 C        13.3608569177       -2.5462620765        0.4182505202
 C        12.6255191946       -1.1532986507       -1.6514371472
 H        -3.5413718366        3.2582275146       -9.1871343031
 H        -4.0049768383        1.7537334322       -8.3256429142
 H        -4.8636018747        2.4350123963       -9.8343405181
 H        -3.9066718208        3.6674950437       -6.4188232815
 H        -4.9929016026        4.7354769058       -5.6677144222
 H        -8.3778913340        3.0002602957       -8.1231425408
 H        -7.9722753199        4.3821835736       -7.2436532314
 H        -8.6407303026        2.9397955477       -6.4881297380
 H        -7.5959394627        1.0795194237       -8.1570458593
 H        -5.8204654124        0.7852062446       -8.2377531098
 H        -6.7883701011        0.5537206723       -6.6880729258
 H        -3.2813926029        4.3507051425       -4.0250896430
 H        -4.4670502886        3.3135797185       -3.4828048132
 H        -0.7211529933       -0.4038506324       -3.7091260808
 H        -0.8167523408       -0.9866177555       -2.0257204046
 H         0.3087294545        1.9322219795       -3.8868274487
 H        -0.4108416763        2.7778024354       -5.3085837578
 H        -0.5320576446        1.3623407120       -5.4770401438
 H        -2.1993673753        3.7982915841       -2.0836291387
 H        -0.4795144229        3.6870512766       -2.4862348165
 H        -1.3995643172        4.3224798789       -3.7169777428
 H        -2.2971577993       -2.0827966036       -3.4059736527
 H        -3.4066189713       -0.6908889971       -3.7351889950
 H        -7.4545490517        0.1698325961       -2.2503580913
 H        -7.6283261280       -1.6102510700       -1.9354136571
 H        -5.3387276586       -0.9602176704       -3.8597823005
 H        -6.5808045495       -2.1015668086       -3.6533811655
 H        -4.8204758233       -2.6188098584       -3.9289123808
 H        -6.0753082684       -3.6963400060       -1.1076663707
 H        -4.3760444360       -4.0860471753       -1.6827167657
 H        -4.6538785102       -3.2350413948       -0.1240664847
 H        -8.9008336748        0.6148110170       -0.5430122017
 H        -8.7778262041       -1.0855814090        0.0156846062
 H        -5.9080010832        2.3680601722        4.0711565158
 H        -6.1812501841        0.6187773589        3.7622230520
 H        -8.3946934190        2.1944653235       -0.3230875767
 H        -6.6811859466        2.2815596802       -0.5454533931
 H        -7.2868382623        3.7125903279        0.2910800999
 H        -8.8310081544        1.4383667212        3.1515400924
 H        -7.9942824769        3.0663856744        3.2590722489
 H        -9.2984456931        2.6366513267        1.9366624289
 H        -4.0956328225        1.3722294671        4.8892980537
 H        -3.5536100752        2.1631961326        3.5599987011
 H        -1.6338399844       -3.3007405571        4.5535112453
 H        -0.6392473829       -2.4949118293        3.2772270848
 H        -5.6153645385       -1.1993361825        4.0586884214
 H        -4.5910970575       -1.0206612242        5.4680176624
 H        -4.5920687005       -2.5420190013        4.7572729581
 H        -4.4725755160       -2.3384314574        1.9350001896
 H        -2.8240532528       -2.0353900153        1.6015072945
 H        -3.2947831351       -3.2211888393        2.8885493589
 H         0.7036505465       -1.2256836154        5.2936333123
 H        -0.0853363280       -2.3279767831        6.3792576379
 H         5.1267262990       -1.4653334186        4.4648209561
 H         5.1081110411       -3.1586093642        3.7186706865
 H         2.6451478690       -1.2775323205        6.5154260330
 H         4.0274689868       -2.4133825820        6.7464239549
 H         2.6567772031       -2.6917836459        7.4481003127
 H         3.9122438439       -4.7340115078        4.2916793401
 H         4.1275888494       -4.5507588825        6.0876340007
 H         2.7873896897       -5.3262709560        5.4410424669
 H         3.8953249089       -0.8834209743        2.2534174118
 H         5.0418652223       -2.1910512563        1.4514525569
 H         9.2475827486        0.1165496159        1.7207486978
 H         8.7325397323       -1.5163666235        1.1878000461
 H         6.9720102054       -2.1059250544       -0.0413662258
 H         6.2234226051       -0.7784092665       -1.3001683936
 H         5.2226184599       -1.7139754976       -0.2760551990
 H         4.3250615634        0.3979904443       -0.0235441871
 H         5.0259757216        1.7464808357        0.8555979711
 H         5.5431706549        1.5086517081       -0.6867531296
 H         9.6771199456       -0.7317128740       -1.1797273115
 H        10.4862230770        0.4247545663       -0.0222352050
 H        12.8559929121        1.3005285314       -0.6615718886
 H        12.7809913703        1.9272360669        1.0295537721
 H        14.2613990946        1.2487644522        0.5000051983
 H        14.0884457130       -2.2248624201        1.1611194332
 H        13.8188723241       -3.0678665074       -0.3883403787
 H        12.7669071865       -3.3050971450        0.9579764320
 H        13.6946022183       -0.8887140262       -1.9094607122
 H        12.0953913864       -1.8522426811       -2.3291912733
 H        12.1425466069       -0.2326344871       -1.9670174950
 Na       -3.3984142202        1.0669162221        0.3051829828
