155

 C        -4.3084403616        1.7892596288       -7.7063192468
 C        -5.5521903541        2.5459397001       -7.3268113680
 C        -6.5407797951        2.1708869546       -6.2152042776
 C        -6.2204549668        2.7992294364       -4.8795342582
 C        -5.2137787391        4.0422583641       -4.8608297269
 C        -8.0289678073        2.7201117182       -6.4011065369
 C        -6.8566792513        0.6301280495       -6.2411027271
 O        -5.7096385736        3.5907142173       -7.9499365558
 O        -6.6059902061        2.3899793017       -3.8467483557
 C        -4.1831568857        3.8786434040       -3.7741090517
 C        -3.2539345278        2.7944427599       -4.1797176140
 C        -1.7624301177        2.6249251472       -3.7701860590
 C        -1.9909432940        1.3060577578       -2.7101151977
 C        -1.7027673168       -0.2036052345       -2.9950447362
 O        -3.5869145891        1.9130544362       -5.0179342769
 O        -2.5872575367        1.5975384473       -1.6428530714
 C        -0.9288067382        2.2485030463       -5.0472017767
 C        -1.1566259911        3.7983770536       -3.0428001507
 C        -3.1426361012       -0.7391193616       -3.3146527111
 C        -3.9541362844       -1.3833183254       -2.1566503427
 C        -5.4478153211       -1.5809128039       -2.2705007816
 C        -6.2940913526       -0.7063836796       -1.1209125199
 C        -7.8709902136       -0.5556313212       -1.2500836417
 C        -6.2054836323       -1.0857865119       -3.5273637938
 C        -5.8116548704       -2.9803833624       -1.9498943278
 O        -3.4032331255       -1.7861377649       -1.1341847505
 O        -5.7409428776        0.0260396142       -0.2993993504
 C        -8.4744952969       -0.3589120628        0.1646216449
 C        -7.5442073054        0.3422073040        1.3244654364
 C        -7.3279645629        1.8317065235        1.4418868124
 C        -5.7712956596        1.9155316772        1.7241621585
 C        -5.3175533456        1.7774056571        3.1678677909
 O        -7.3165099041       -0.3883213906        2.2720846774
 O        -5.0612376652        2.2706759457        0.7632076822
 C        -7.5799644641        2.5733107091        0.1254510210
 C        -8.2354674484        2.3773711151        2.6332697451
 C        -3.8005428961        1.9079591997        3.3720546628
 C        -3.2755595278        0.4402239224        3.2845347587
 C        -3.2940410662       -0.5521942502        4.4527154103
 C        -1.7292947348       -0.7229389179        4.8971035719
 C        -1.0006296980       -2.1404100323        4.6747611652
 C        -4.0228804165       -0.2727719513        5.8054018019
 C        -3.9310633437       -1.8028520496        3.7927307081
 O        -2.6367700050        0.2193533944        2.2502443307
 O        -1.1209716903        0.2401721112        5.3579619524
 C         0.2827553117       -2.1615323910        5.4742284023
 C         1.2853383230       -3.2732366518        4.8876097044
 C         2.8619452678       -2.8752275995        4.8715168500
 C         3.1489996117       -1.9532942702        3.5550125768
 C         4.6995563534       -1.5465800144        3.4851229285
 O         0.8648692761       -4.3728088354        4.6181634138
 O         2.2786513294       -1.7097671031        2.7755234005
 C         3.2502576356       -2.2595560015        6.1569793123
 C         3.6636025868       -4.2805489708        4.7173907068
 C         5.0114943283       -1.5236251663        1.9760365563
 C         6.3381991815       -0.8023632551        1.6114403997
 C         6.5466121459       -0.3605357468        0.1395588380
 C         8.2011776260       -0.0381327250        0.1663497108
 C         9.2199003725       -1.1550434551        0.4066948434
 C         6.2984058800       -1.6446904545       -0.9373947096
 C         5.9365321619        1.0125221979       -0.1216457160
 O         7.0588126255       -0.4739949609        2.5229914521
 O         8.7089216495        1.0561858037        0.0107057910
 C        10.4326290589       -0.9929738474       -0.5765845501
 C        11.2956996346       -2.2398413675       -0.3662488084
 C        12.8385749960       -1.9324890135       -0.1837123416
 C        13.1058402647       -0.6706606160        0.6086594698
 C        13.8559152582        0.4953071538        0.0379461260
 O        10.9528969804       -3.3398586439       -0.7680453506
 O        12.3439069188       -0.4793388134        1.6289372184
 C        13.5335277022       -3.2419915555        0.4041879305
 C        13.0859687223       -1.7585548637       -1.6585545960
 H        -4.1369148111        2.3217707781       -8.6591862488
 H        -3.5328739442        1.6877317629       -6.8849298584
 H        -4.7816246236        0.7651753168       -7.9923090422
 H        -4.6569896465        4.2141432834       -5.7167517039
 H        -5.7573824111        4.9585908312       -4.5718274331
 H        -8.6726221612        2.0047829960       -7.0244580767
 H        -8.1458448949        3.7362322376       -6.9767903273
 H        -8.5668727909        3.0253241718       -5.4137280963
 H        -6.8043236599        0.0715172946       -5.3081244881
 H        -7.7350240029        0.3071306233       -6.7223560790
 H        -6.1024156358        0.1666030543       -6.7773931281
 H        -3.7076384538        4.8451740015       -3.4347427593
 H        -4.6004460083        3.4013220166       -2.8467649118
 H        -1.0024105187       -0.2607387604       -3.7856482393
 H        -1.2948245853       -0.7164252195       -2.0516492850
 H         0.1633182562        1.9885291811       -4.8864647147
 H        -0.7049690803        3.0444753640       -5.7939622134
 H        -1.1291108870        1.3359074456       -5.4890172120
 H        -1.5522935867        4.2197401880       -2.1522003075
 H        -0.1154780939        3.5559706678       -2.8110107190
 H        -1.1312464617        4.6511621533       -3.7393651245
 H        -3.0093689434       -1.4828311804       -4.1877045484
 H        -3.7554720025       -0.0275894930       -3.6434421479
 H        -8.0497724776        0.3415948363       -1.8474279087
 H        -8.3769583970       -1.4262418708       -1.7225615069
 H        -6.1762560515        0.0353128794       -3.4840524562
 H        -7.2998713396       -1.4929698609       -3.6716617242
 H        -5.7407372377       -1.4135497071       -4.4010509956
 H        -6.9830371448       -3.0514396952       -1.9078541663
 H        -5.5320486205       -3.6951469076       -2.6865679737
 H        -5.3914859379       -3.2622541468       -0.9417633786
 H        -9.4018967539        0.0984115238        0.2102522555
 H        -8.7419621872       -1.2703123075        0.6504455472
 H        -5.7198377637        2.5813129604        3.7724437721
 H        -5.7060920963        1.0106662624        3.8475963755
 H        -8.0541124863        1.9288183409       -0.5174574442
 H        -6.5816406062        2.6997780657       -0.3871042168
 H        -8.2403646703        3.3708991510        0.0710440617
 H        -8.1884930367        1.8239667712        3.5210238403
 H        -8.1217415716        3.4587302619        2.7313320258
 H        -9.2053985659        2.3404499065        2.2017489310
 H        -3.6754223232        2.3023603648        4.3559746973
 H        -3.4223877079        2.5009434541        2.5896209372
 H        -1.7096237280       -2.8606698988        4.8625193500
 H        -0.7090065788       -2.1254220174        3.6266000576
 H        -5.0533291887        0.1456333988        5.7885368633
 H        -3.3197211898        0.3862147177        6.2164386261
 H        -4.0252523260       -1.2380747762        6.3265439418
 H        -4.8612568220       -1.3557165468        3.3478727615
 H        -3.2917627552       -2.1872878031        2.9675240005
 H        -4.0993113416       -2.7066714519        4.4106897679
 H         0.8028981400       -1.2453518356        5.4398769230
 H        -0.0220440466       -2.4563340745        6.5654131398
 H         4.7612828007       -0.5081021178        3.8399791871
 H         5.4137940082       -2.1806799352        4.0615271818
 H         2.8305235481       -1.2283169357        6.3565748964
 H         4.2932213330       -2.0493233976        6.3093473397
 H         2.8294404747       -2.8585080316        6.9261304232
 H         3.4906031523       -4.7535512741        3.7278846019
 H         4.7602588329       -4.2233441431        4.8927735770
 H         3.2770517911       -4.9984954794        5.4785549855
 H         4.2188678093       -0.9787015621        1.3904479788
 H         5.0368185169       -2.5004977321        1.5805774976
 H         9.6771580349       -1.2570835999        1.4253329423
 H         8.6818488459       -2.0994481072        0.1176502698
 H         6.2940138017       -2.6854061735       -0.5018794357
 H         7.1268410618       -1.6128130202       -1.5851578042
 H         5.3587034734       -1.3150233784       -1.3237936703
 H         5.0221956173        1.1798149962        0.2975060210
 H         6.6224739065        1.7073689149        0.2356079320
 H         5.6366306468        1.1886675004       -1.1625140357
 H        10.1328826185       -0.8810343557       -1.6392828009
 H        10.9253719959       -0.0400650174       -0.4227208218
 H        14.1576662998        1.1785073401        0.7788919641
 H        14.6531660536       -0.0177286058       -0.5795222885
 H        13.1284445734        0.9815421499       -0.7851507498
 H        14.6611538933       -3.2501795141        0.1527040956
 H        13.0333017419       -4.0313520491       -0.1546260936
 H        13.3427584024       -3.3823887666        1.4664529446
 H        14.1324662547       -1.6300561209       -1.9687573185
 H        12.7124441219       -2.6812347597       -2.1841595029
 H        12.4797852195       -0.9062346391       -1.8175920324
 Na       -3.5225557321        0.6080387465        0.1723640620
