155

 C        -5.4567398578        1.5710337717       -8.2560463019
 C        -5.8449485021        2.7039696312       -7.1424422173
 C        -6.9774695647        2.5328988416       -6.1639739539
 C        -6.2691131796        2.4668569002       -4.8171832057
 C        -5.7076382461        3.7006607492       -4.1300475350
 C        -7.9233951974        3.8491982534       -6.2609012822
 C        -7.8682835238        1.3569421835       -6.4167882451
 O        -5.3917766129        3.8387199454       -7.2127623973
 O        -6.1535380837        1.3053202157       -4.2516540826
 C        -4.3059480713        4.1214208640       -4.5936682142
 C        -3.4256722396        2.9211941975       -4.6916992087
 C        -2.2045457964        2.7597963597       -3.8133428183
 C        -2.4717868564        1.5689568672       -2.6804468442
 C        -2.2201129304        0.0485742731       -2.9486624465
 O        -3.7121015600        1.9277303859       -5.3951852257
 O        -2.6189935996        1.9513172920       -1.5004600360
 C        -0.9539067943        2.4089635926       -4.7695999149
 C        -1.6986336575        4.0392460586       -2.9576888821
 C        -3.5401187387       -0.6262471951       -3.2014557475
 C        -4.1703802963       -1.3453567891       -2.0080054255
 C        -5.6302717096       -1.8689792822       -2.0847471486
 C        -6.4118363943       -0.8147465822       -1.0024460414
 C        -7.9204528918       -0.8025236646       -0.8228193918
 C        -6.4494318034       -1.7726794579       -3.3877544245
 C        -5.7935453501       -3.2900304902       -1.4325174184
 O        -3.5152490109       -1.5119555753       -0.9754516324
 O        -5.8172294242       -0.2554888699       -0.0573630481
 C        -8.5198463431       -0.2726596714        0.5961975220
 C        -7.3651968898        0.3229757034        1.5145955078
 C        -7.1512117795        1.9000817385        1.3296569612
 C        -5.4931729330        2.1466182244        1.6153759163
 C        -5.1149174175        2.0080920773        3.0725166653
 O        -6.7808380542       -0.2917108274        2.4252300859
 O        -4.7292744313        2.3599603005        0.6966206915
 C        -7.5852670535        2.5216821074        0.0099822249
 C        -8.0293679130        2.5584615358        2.5572282701
 C        -3.5745530157        1.5952610229        3.2275886324
 C        -3.2959831278        0.1022663163        3.5799758578
 C        -3.1583825740       -0.2998155316        5.1061198658
 C        -1.5328965989       -0.3997449067        5.3687361773
 C        -0.7687976658       -1.5694321182        4.8486073752
 C        -3.7743798233        0.5668094110        6.1401973398
 C        -3.8084686750       -1.7049271863        5.2039374711
 O        -3.2707534010       -0.6694150486        2.6393945051
 O        -0.9799045357        0.5863648491        5.8790618365
 C         0.6859002862       -1.4589886332        5.3120694187
 C         1.3976410148       -2.7990145452        4.9717102147
 C         2.8962024401       -2.8229989057        4.3977742446
 C         3.0930843006       -1.9156795068        3.1761510829
 C         4.3940497139       -1.2150924442        2.9940763440
 O         0.9048556923       -3.8230554999        5.3046689522
 O         2.1161188821       -1.7072318418        2.4831487157
 C         3.7286805092       -2.5237533140        5.6412372896
 C         3.3433920659       -4.2401684700        3.9596623852
 C         4.9356755956       -1.3194353509        1.5763020770
 C         6.4468159287       -0.9626817306        1.4391006036
 C         6.9438650192       -0.4213113879        0.0386564947
 C         8.5576257548       -0.0402803011       -0.1202323508
 C         9.5558233491       -1.2143891442       -0.0713699100
 C         6.3538404220       -1.4314413703       -1.1456236237
 C         6.2043086603        0.9385863680       -0.0987055213
 O         7.1679577561       -0.9720172514        2.3656704509
 O         8.8957902123        1.1011048849       -0.3943302178
 C        10.6223824178       -1.4398140213       -1.2041429692
 C        11.4706000884       -2.6272726081       -0.8244710483
 C        13.0093266884       -2.3628574948       -0.5048221992
 C        13.2022904393       -1.1081529734        0.5007430334
 C        14.4212756588       -0.1621395610        0.3949529275
 O        10.9897318666       -3.7378946704       -0.9747890500
 O        12.3362879019       -0.8607636736        1.3106307725
 C        13.7072779185       -3.7396254619        0.0660841976
 C        13.6239229849       -2.0991604255       -1.9112676730
 H        -6.1689421043        0.7766923266       -8.2824684913
 H        -5.4706462960        2.2006958246       -9.2276479772
 H        -4.4614105347        1.1512948934       -8.0720326802
 H        -6.4034458897        4.5485781224       -4.2701059554
 H        -5.7560037220        3.5180032388       -3.1062336572
 H        -8.2755725080        4.0046375869       -7.2621404237
 H        -7.5100182860        4.8957663529       -6.0738061424
 H        -8.7990441394        3.5970670967       -5.7825987194
 H        -7.8073530911        0.5445461323       -5.5643490987
 H        -8.9181601772        1.6121287767       -6.4546024174
 H        -7.5875910846        0.8568328937       -7.3317800549
 H        -4.4460255329        4.6213363946       -5.5251310781
 H        -3.8881122025        4.7738395972       -3.8429262966
 H        -1.4552053526       -0.1299806519       -3.7688015184
 H        -1.7731008502       -0.4652437404       -2.1057230710
 H         0.0606169543        2.6163869777       -4.3308318446
 H        -0.8099574450        3.0080491078       -5.7287271184
 H        -0.9878287611        1.3223379468       -5.1112405771
 H        -2.2558866622        4.2287605048       -2.0003080459
 H        -0.7718743457        3.8061974646       -2.6167302343
 H        -1.6388766533        5.0636213145       -3.3678250443
 H        -3.4002810031       -1.4443339203       -3.9210674475
 H        -4.3718000831       -0.0417341846       -3.6865372645
 H        -8.2445306132       -0.0159100602       -1.5743631957
 H        -8.4532549932       -1.7680173621       -1.0088130805
 H        -6.7227561312       -0.7947298224       -3.5681311530
 H        -7.4196110550       -2.3478768474       -3.1645806164
 H        -5.9230582358       -2.1208321096       -4.2858857020
 H        -6.8515315753       -3.5587822065       -1.3090644188
 H        -5.4261055790       -4.0180830556       -2.2266229617
 H        -5.4615113058       -3.4052016723       -0.3634955239
 H        -9.1456412298        0.6263331733        0.3487350710
 H        -8.9863672187       -1.0871368788        1.1701258208
 H        -5.2102683738        2.9960479191        3.6261167260
 H        -5.8452395813        1.3452583342        3.6280280949
 H        -8.6328547797        2.8521089578        0.0205537535
 H        -7.5962632735        1.8175630421       -0.8142128431
 H        -6.8961668192        3.2608059058       -0.4306591969
 H        -7.7895625658        2.2035000032        3.5188121755
 H        -8.0928368071        3.6258392849        2.6261213702
 H        -9.0493386558        2.1349817107        2.3510380949
 H        -3.0783434763        2.2120745486        4.0812821057
 H        -3.1526608394        1.7855622709        2.1907830392
 H        -1.2758108600       -2.4914402481        5.2560181420
 H        -0.8909127780       -1.4920594529        3.7584892827
 H        -4.7791258705        0.2145854142        6.2087513114
 H        -3.8586176687        1.6324628078        5.7688369612
 H        -3.1769617397        0.5432702411        7.0293211775
 H        -4.8993984480       -1.8132800171        5.1255377056
 H        -3.4693460298       -2.4680375125        4.4442704425
 H        -3.4754811646       -2.0191018444        6.2514981473
 H         1.3070904994       -0.6772117541        4.7402937487
 H         0.8691999466       -1.3788559994        6.3253066499
 H         4.3860252271       -0.1946968266        3.3563497707
 H         5.0209852811       -1.6080790580        3.7976843680
 H         3.5748837107       -1.4619264126        5.8029538376
 H         4.7570187177       -2.8297050395        5.5196991394
 H         3.4091883043       -3.0408016985        6.4615146771
 H         4.3192031188       -4.4499810345        4.4644455640
 H         2.4306933551       -4.8767622318        4.2315932828
 H         3.6827041017       -4.3324062142        2.9098362950
 H         4.2360388444       -0.8380040035        0.8111093452
 H         4.6465942474       -2.4506609003        1.4146349441
 H        10.0875698033       -1.3461062955        0.8578790227
 H         8.9366802996       -2.0542871247        0.0855821370
 H         5.6782630328       -0.8035664249       -1.6297076588
 H         6.0518660645       -2.4257144083       -0.7179202577
 H         7.1613600159       -1.7133003181       -1.7522460217
 H         6.5832615014        1.6265650934       -0.7964011448
 H         5.2268144390        0.8772815190       -0.3878463838
 H         6.3119002772        1.2473993694        0.9360504427
 H        10.1853750473       -1.7328318051       -2.2043582814
 H        11.2649598453       -0.5226777234       -1.2950697989
 H        14.6600222026        0.2709660424        1.2358456379
 H        15.2984703941       -0.7287186588        0.3507884517
 H        14.2826982745        0.6629358551       -0.4103349327
 H        14.7713327140       -3.7263846482       -0.1076832064
 H        13.2321534346       -4.5412072593       -0.4584706129
 H        13.6810980262       -3.7234737548        1.1778231837
 H        14.6688118977       -1.9388601000       -1.8287647332
 H        13.1746100815       -2.7437702775       -2.6053590073
 H        13.3288609537       -1.0784813286       -2.1482781890
 Na       -3.5955525213        0.4878163966        0.4764976947
