155

 C        -5.6851389062        1.7042490996       -8.3775112727
 C        -5.9310227380        2.7941601897       -7.3305394709
 C        -7.1781150566        2.7541438890       -6.1788337480
 C        -6.4615307380        2.3301395202       -4.7944430235
 C        -5.7996480396        3.3793775579       -3.9207974197
 C        -7.8468099942        4.1431867895       -6.1639926157
 C        -8.3006184254        1.7698037225       -6.3972305360
 O        -5.4474026765        3.8866179990       -7.2766568182
 O        -6.5628455371        1.1851412822       -4.5163455754
 C        -4.4223364661        3.8918576680       -4.4483979555
 C        -3.3252913423        2.7595173367       -4.6722252803
 C        -2.1965172697        2.7635369106       -3.7477243243
 C        -2.4951175441        1.5659875959       -2.5528388008
 C        -2.5708510621        0.1233261091       -3.2593609331
 O        -3.3452737867        1.9498072722       -5.5332016253
 O        -2.6048953360        1.7305950464       -1.3924439543
 C        -0.8791297915        2.4339359755       -4.5245676974
 C        -2.0284252223        4.0742317696       -2.9778424872
 C        -3.9743732618       -0.3727832728       -3.0646295475
 C        -4.1747341299       -1.2397954195       -1.8372800843
 C        -5.5623734098       -1.9952701883       -1.7185778449
 C        -6.2874284794       -0.9002696784       -0.7621575070
 C        -7.8663661199       -0.7955507756       -0.7797421846
 C        -6.3664639888       -1.9683642256       -3.0972870630
 C        -5.6866714877       -3.3468363682       -0.9781161660
 O        -3.2467199869       -1.5870859862       -1.1166061395
 O        -5.7407331380       -0.0806049524       -0.0916435725
 C        -8.4659452063       -0.5031457018        0.6416256521
 C        -7.5046199169        0.3796099385        1.5795573295
 C        -7.1438682440        1.8791022420        1.4151296355
 C        -5.5035735307        2.0389504140        1.6341823022
 C        -4.9964801503        2.0123106121        3.1755442481
 O        -7.0128382537       -0.1435406145        2.5410910152
 O        -4.7479663441        2.2875938085        0.6806130455
 C        -7.3365251486        2.4618833743        0.1009249060
 C        -7.9104408913        2.6775938005        2.4580939135
 C        -3.4906877103        1.7782438232        3.3592284480
 C        -3.3487479534        0.2845872388        3.6821804371
 C        -3.1310389629       -0.2117412057        5.1004932652
 C        -1.5671505865       -0.1385083592        5.4108981381
 C        -0.6398948926       -1.4071276642        4.9813063481
 C        -3.8201164268        0.7193102929        6.1729318929
 C        -3.5555466716       -1.7066217599        5.2609713632
 O        -3.5502014800       -0.5242768502        2.7382454162
 O        -1.0989325578        0.7735811308        5.9956948836
 C         0.8231963410       -1.2648659836        5.1804501553
 C         1.4679553520       -2.7812199539        5.0318938721
 C         2.9435523346       -2.8064111399        4.3444786484
 C         3.2267688541       -1.9086954927        3.0749928894
 C         4.5913045191       -1.2040224923        2.9050491401
 O         0.7646750671       -3.7488624689        5.2683136255
 O         2.3440614833       -1.6908086221        2.2441718161
 C         3.9133933937       -2.3612298034        5.5193813227
 C         3.0002643554       -4.2410363891        3.7748392872
 C         5.1844415400       -1.2656581373        1.4942735284
 C         6.6657682843       -0.8812828620        1.3158275299
 C         7.0041234876       -0.2892380961       -0.0843546514
 C         8.5898201965       -0.2300144647       -0.2690639928
 C         9.3290449582       -1.4598032078        0.0111906064
 C         6.6616154083       -1.3598269251       -1.2493582194
 C         6.3087370052        1.0656266963       -0.3710912739
 O         7.5940099710       -1.3153554493        2.0194890474
 O         9.0996192445        0.7896525538       -0.6205882790
 C        10.5345046513       -1.3429295096       -0.9018005241
 C        11.4033304820       -2.6602274185       -0.8542336041
 C        12.8672797215       -2.3412222315       -0.6872466316
 C        13.0496851414       -1.2584850622        0.3846421642
 C        14.5321840361       -0.7426205496        0.4587785007
 O        10.9240436128       -3.7815555712       -0.9553260516
 O        12.2733229841       -1.1374438129        1.2886258636
 C        13.6290437204       -3.4982525239        0.0106728915
 C        13.4982594303       -2.0000896065       -2.0721685235
 H        -5.9900367379        0.7571627776       -7.9506379971
 H        -6.3449547279        1.9846174314       -9.1737590190
 H        -4.6593936025        1.7237370994       -8.5405697036
 H        -6.4940128185        4.1880276928       -3.6493208587
 H        -5.6613432922        2.8388691486       -2.9009103082
 H        -8.2460630409        4.4157893035       -7.1626697612
 H        -7.0926555575        4.8810718123       -5.9919129842
 H        -8.5794762095        4.2472543480       -5.3065909548
 H        -9.0867149960        2.1167758632       -5.8084284845
 H        -8.6740797363        1.8668524831       -7.4845396752
 H        -8.1590099553        0.6944262367       -6.1551108103
 H        -4.6527173164        4.3978977574       -5.4282333201
 H        -4.0829031526        4.5728360448       -3.6914392700
 H        -2.4838508618        0.3176883545       -4.2926548223
 H        -1.8094131265       -0.6724414346       -3.0918390531
 H        -0.0547463146        2.0113866655       -3.9136722223
 H        -0.3735786855        3.2832912414       -5.0155103448
 H        -0.9939696007        1.8077941466       -5.4170425950
 H        -2.7897003042        4.3181221663       -2.2878735485
 H        -1.0371432438        4.2397519071       -2.4018811792
 H        -1.9852376766        4.9150434925       -3.6530741140
 H        -4.2931096563       -1.0293766488       -3.8662055446
 H        -4.7892640882        0.3907875259       -3.1120047547
 H        -8.2029383286        0.0158567895       -1.3999827558
 H        -8.4565405334       -1.6723719582       -1.0002117285
 H        -6.4314917655       -0.9586606212       -3.6001744016
 H        -7.2706893098       -2.3234122194       -2.8657398160
 H        -5.8963534842       -2.6538079584       -3.8533257987
 H        -6.7037621749       -3.4263427659       -0.6377234451
 H        -5.3721944182       -4.2329575314       -1.5191592323
 H        -5.1833457012       -3.2855395613       -0.0403111379
 H        -9.3241749491        0.1216197390        0.4370913411
 H        -8.5786204165       -1.4164289901        1.2354126075
 H        -5.1568020602        3.0228248770        3.5353241684
 H        -5.5994905301        1.3501983307        3.8114098888
 H        -8.3252666481        2.1738279589       -0.3297134556
 H        -6.5893831362        2.1682225685       -0.6499599250
 H        -7.1438803335        3.5398195587        0.0529814320
 H        -7.5890200879        2.4410336599        3.5468473948
 H        -7.7468883738        3.7808649080        2.3008761615
 H        -8.9749248472        2.5026151098        2.4019570751
 H        -3.0388520896        2.4189031939        4.0614150746
 H        -3.0288037421        1.8270238463        2.3578153616
 H        -0.9356759552       -2.2629475579        5.5857653332
 H        -0.9984059283       -1.5128484866        3.9319426946
 H        -4.9048773455        0.9410517062        6.0271911265
 H        -3.2327960546        1.6130427985        6.2498085895
 H        -3.5200390592        0.1785777790        7.1023896486
 H        -4.5915220520       -1.8653865695        4.9057242096
 H        -3.0097226913       -2.3433297054        4.6212669838
 H        -3.5330364051       -2.0562422441        6.2543302214
 H         1.3588877016       -0.7558800453        4.4615818691
 H         1.0726674322       -0.8212788248        6.1861765213
 H         4.4582693412       -0.1296674497        3.2038101909
 H         5.2515138217       -1.4837765996        3.7166550612
 H         3.9768427976       -1.2855107442        5.5138661025
 H         4.8376276917       -2.9349643816        5.4843709061
 H         3.4802854720       -2.8371832298        6.4933190865
 H         3.3723371142       -4.9877332966        4.4814842205
 H         2.0283239936       -4.3821148849        3.3450660797
 H         3.7925865055       -4.1900879250        2.9967845945
 H         4.5633693067       -0.8778613151        0.7712471495
 H         5.1098379455       -2.2798555578        1.3420701903
 H         9.6489866753       -1.5543493078        1.0638085457
 H         8.7579289265       -2.4345441393        0.0420753174
 H         6.5645309302       -0.7548778419       -2.1535812615
 H         5.7668557572       -1.8344141937       -0.9925964396
 H         7.4032462430       -2.1871842500       -1.2521562410
 H         7.0848142406        1.9177676845       -0.2198129936
 H         6.3873620686        1.2946492433       -1.5118142469
 H         5.3002781561        1.1828441450        0.1114036758
 H        10.1670398941       -1.4014685944       -1.9046280628
 H        11.0489481194       -0.4157608029       -0.7134906644
 H        15.0588652179       -0.8249938700        1.5226843535
 H        15.3985975031       -1.4041816508        0.0970886987
 H        14.5881566056        0.2943527082        0.3014921111
 H        14.6954900450       -3.2803505339       -0.0206222624
 H        13.4028865872       -4.4989127636       -0.4221341421
 H        13.3224725904       -3.4292409625        1.0381998039
 H        14.4614292964       -1.5611265365       -1.8345194819
 H        13.3748055848       -2.8623029831       -2.7432878804
 H        12.8931261743       -1.2024470071       -2.5330738378
 Na       -3.5418353874        0.1017935507        0.4585037893
