155

 C        -5.9956067544        1.5805598335       -8.1287272677
 C        -6.5405062829        3.0222090274       -7.4524253614
 C        -7.5005138877        3.1532163087       -6.1739036051
 C        -6.8021102553        2.1212474464       -5.0655178348
 C        -5.8608337453        2.7393895315       -4.0786406115
 C        -7.3836377189        4.7590314621       -5.7504683163
 C        -8.9397181101        2.6795134121       -6.4585308906
 O        -5.9081860895        3.9880199566       -7.8265184453
 O        -7.1996932553        1.0089969543       -5.0562123733
 C        -4.5262327022        3.6482839058       -4.2016752987
 C        -3.2431933637        2.9555964778       -4.4136857588
 C        -2.2887331827        2.7566194898       -3.2353626807
 C        -2.5991946201        1.3519728804       -2.4800363514
 C        -3.0830006765        0.0982086524       -3.4123800553
 O        -3.1417481210        2.2524094894       -5.4066974692
 O        -2.5103745613        1.3875385756       -1.2753347339
 C        -0.9850206101        2.5057900385       -4.0279543438
 C        -2.1631744673        3.8938918829       -2.1364862849
 C        -4.4690333568       -0.6941681881       -3.2382791265
 C        -4.3025282347       -1.6397476598       -2.0373453743
 C        -5.5531249608       -2.2376089763       -1.3996313349
 C        -6.2271248722       -1.0507171985       -0.4227793741
 C        -7.8014402548       -0.7664593966       -0.3780795262
 C        -6.5806947299       -2.8890119664       -2.3399412489
 C        -5.1590659729       -3.2468641691       -0.2665515454
 O        -3.1522877972       -1.8675920875       -1.5409976762
 O        -5.5298610645       -0.4370711867        0.3522848089
 C        -8.4815086503       -0.2517972404        0.9174565772
 C        -7.5122370693        0.6210905506        1.7892229715
 C        -7.0270341754        2.0036790445        1.4484028223
 C        -5.5428391595        2.1268716239        1.8790800574
 C        -5.0742661543        2.2947421756        3.3684929664
 O        -7.2350203355        0.0963531552        2.8341572902
 O        -4.7203187354        1.9067898287        0.9847441267
 C        -7.1369806990        2.5512341614       -0.0090814811
 C        -7.8732122724        2.9979715416        2.4638676057
 C        -3.5981662690        2.0815709052        3.5699884935
 C        -3.1872956028        0.5060239333        3.7402036803
 C        -3.0703267619       -0.1257667550        5.1197452657
 C        -1.5397938547        0.0955799479        5.2589272363
 C        -0.6466959835       -1.0501893295        4.8377866939
 C        -3.7486455104        0.6719180935        6.2067011942
 C        -3.5555441797       -1.5778367996        5.1980699648
 O        -2.8728969791       -0.1249831689        2.7087042922
 O        -1.1549841511        1.1699957372        5.6880293795
 C         0.8186564903       -0.9365839179        4.5852381592
 C         1.4551671897       -2.4297100963        4.6360657967
 C         2.9876103749       -2.6424000704        4.2203295328
 C         3.3781045823       -1.7257937895        3.0704794836
 C         4.7886126699       -1.6238682933        2.6336891275
 O         0.7954464627       -3.2707602766        5.1023586034
 O         2.3727118043       -1.4185471155        2.3778245249
 C         3.9828447494       -2.3817717885        5.4470915769
 C         3.1028301170       -4.0722562611        3.6520251245
 C         5.0572877615       -1.3540486121        1.1738794190
 C         6.6033910929       -1.0865002687        0.9147329875
 C         6.9993969124       -0.3971607022       -0.4131975955
 C         8.6806020489       -0.1262622728       -0.6273493411
 C         9.4415795869       -1.3444052006       -0.2990086142
 C         6.6024323967       -1.1036179755       -1.6590901290
 C         6.2986173455        1.0147074819       -0.2675709209
 O         7.4220353342       -1.2071004277        1.7475448306
 O         9.0754957125        0.9885649410       -0.8944160479
 C        10.5837332607       -1.7399603398       -1.2911724448
 C        11.5004724816       -3.0121261766       -0.9580658248
 C        13.0318913831       -2.7055783643       -0.8761153655
 C        13.2409635600       -1.8146144698        0.4745101696
 C        14.7449238255       -1.5380298301        0.7028959890
 O        11.0974725197       -4.1092589795       -0.6831415075
 O        12.3850625410       -1.3241767740        1.0765494180
 C        13.9316504457       -3.9985708854       -0.5333030481
 C        13.7440973045       -1.8501502637       -1.9677459958
 H        -6.4457230039        0.8346606678       -7.5888061965
 H        -6.4209939824        1.4941595883       -9.1201099756
 H        -5.0149785144        1.5207103616       -7.9263642327
 H        -6.5550572195        3.2818264490       -3.4260422430
 H        -5.4725848307        1.9004386849       -3.4209485315
 H        -7.4660776688        5.3865753678       -6.5826312030
 H        -6.4753306380        4.6923873076       -5.1411522531
 H        -8.0735348419        5.0009583193       -5.0892246748
 H        -9.3683923883        3.2393667713       -7.3496336114
 H        -8.9589707173        1.5774825346       -6.5624209628
 H        -9.4723994449        3.0249572618       -5.5335974301
 H        -4.5444016797        4.3750770827       -4.9948311951
 H        -4.5239117879        4.1277379770       -3.2893582353
 H        -3.0120732126        0.4014878357       -4.4406197351
 H        -2.2288081372       -0.5941901495       -3.3324080706
 H        -0.2086505254        2.0984422223       -3.4503787291
 H        -0.7737556349        3.2719018833       -4.7553562709
 H        -1.0476048577        1.6776568738       -4.8662932332
 H        -2.9996441354        3.9718833315       -1.4487657878
 H        -1.2988875264        3.6779325642       -1.4965249981
 H        -1.8186015173        4.8677077460       -2.4369417373
 H        -4.6686020224       -1.2378287849       -4.0963050438
 H        -5.3395616178       -0.0106062306       -2.9837163794
 H        -8.1265623982       -0.0583316231       -1.1749822392
 H        -8.3905311657       -1.6921441678       -0.6112296841
 H        -7.0366592320       -2.1459401392       -2.9190600244
 H        -7.2858123802       -3.5322367014       -1.8792583621
 H        -6.0184007950       -3.5826895268       -3.0348833774
 H        -5.9643319558       -3.6842547287        0.1628171461
 H        -4.3475442084       -4.0198868275       -0.4798383973
 H        -4.5356951126       -2.6793224851        0.4251519760
 H        -9.4392589284        0.3993639081        0.8141776765
 H        -8.5199152982       -1.0613301414        1.6353629626
 H        -5.3362247472        3.3440831763        3.6004128576
 H        -5.7439018838        1.5308020260        3.8699769897
 H        -8.1888038578        3.0318516625       -0.1712379293
 H        -6.8484496565        1.8648193321       -0.7835719829
 H        -6.3552223418        3.3554987262       -0.1168410814
 H        -7.6486204747        2.7212281047        3.5331737016
 H        -7.7373352716        4.0396590787        2.2473676144
 H        -8.9339829055        2.9185254797        2.3492939513
 H        -3.2545581152        2.7179143555        4.3890940343
 H        -2.9321607674        2.5746482502        2.7615960195
 H        -0.9610624167       -1.6849819510        5.7093583548
 H        -1.2869543389       -1.4611207770        3.9793953108
 H        -4.8546340508        0.6936096344        6.1576156634
 H        -3.2444307070        1.6561708603        6.3156584616
 H        -3.5795402815        0.1001516235        7.1464309048
 H        -4.6794738868       -1.6388561117        5.1913550180
 H        -3.0741777385       -2.1566796898        4.3800878171
 H        -3.3849947885       -2.1134687624        6.1570661837
 H         0.8963683872       -0.3831812510        3.6418185601
 H         1.3977902593       -0.3874012717        5.2915139083
 H         5.3451745480       -0.7963536251        3.2289158867
 H         5.3107171889       -2.5719426794        2.8800763511
 H         3.7952976162       -1.4097021653        5.7653283940
 H         5.0170619002       -2.4785339059        5.1715507552
 H         3.6570462270       -3.0991428869        6.2491954800
 H         2.0473954421       -4.4864856119        3.6078395802
 H         3.4726988782       -4.1090638708        2.5563770980
 H         3.8897636424       -4.5459776118        4.2949862274
 H         4.5684094749       -0.4705033262        1.0169659535
 H         4.6454936158       -2.0084491419        0.4316054583
 H         9.9016578002       -1.0097929319        0.6460217291
 H         8.8151521233       -2.2335927851        0.0571211947
 H         7.1025870784       -2.0389939587       -1.6587093217
 H         6.9998972551       -0.4777694788       -2.4478246323
 H         5.5001163618       -1.3312255960       -1.6446773078
 H         5.8427258842        1.0083861805        0.7971869189
 H         7.1483863852        1.7590937765       -0.1720389375
 H         5.7445634372        1.2385388656       -1.1825414675
 H        10.1569166331       -2.0190441614       -2.2789154982
 H        11.3028164698       -0.9288949482       -1.4533257237
 H        15.2715234096       -1.7626702931        1.6529881564
 H        15.4763928854       -2.1278323377        0.0666599462
 H        14.7991669066       -0.4178867551        0.9071852610
 H        14.9015284190       -3.6541595223       -0.5190444410
 H        13.9542624297       -4.6893427713       -1.3960230856
 H        13.4795624728       -4.5819831372        0.2255948109
 H        14.6774543346       -2.3618913755       -2.1051529087
 H        13.2052222002       -1.9183647763       -2.8964451793
 H        13.7357129077       -0.8031191864       -1.6639513709
 Na       -3.2358262757        0.1105222425        0.4224430432
