155

 C        -6.3355733634        1.9025984704       -7.9554078301
 C        -6.7723973279        3.3444433368       -7.4930640302
 C        -7.5073929254        3.3987384072       -6.1157258538
 C        -6.9030223473        2.5254498610       -4.9859558653
 C        -6.0658948644        3.1251748236       -3.8524295320
 C        -7.3855719206        4.9071289006       -5.6054617143
 C        -9.0978665656        3.2084225664       -6.3762656209
 O        -6.6981594752        4.3875602593       -8.1887923990
 O        -7.0319029875        1.3482425897       -5.0527470440
 C        -4.7020939706        3.8140623252       -4.2965896920
 C        -3.5196570576        2.9109819351       -4.4042651885
 C        -2.7933626253        2.2589814204       -3.2272606676
 C        -3.0003420593        0.9571203613       -2.6151523109
 C        -3.2642846737       -0.3391039824       -3.3063712524
 O        -3.0545566028        2.6983084888       -5.5232922697
 O        -3.0078253150        0.9224527018       -1.3811389312
 C        -1.3553416168        2.2201984981       -3.6962417949
 C        -2.9091855107        3.2207061353       -1.9865970051
 C        -4.5245116289       -1.0903060189       -2.7519130716
 C        -4.2038361051       -1.7405651635       -1.3771729242
 C        -5.4101003436       -2.5272322890       -0.7549051148
 C        -6.1243299993       -1.4544341751        0.1641962966
 C        -7.4823388827       -0.9131760981       -0.1604188770
 C        -6.3087339942       -3.0850798703       -1.8473590564
 C        -5.0798527179       -3.6304206802        0.2810981974
 O        -3.0961775081       -1.8486412601       -0.7781949579
 O        -5.4668741533       -1.0177843257        1.0869765892
 C        -8.3170169814       -0.1192499074        0.8301329452
 C        -7.5475837179        0.7169414943        1.8777585363
 C        -7.0251059856        2.1929690108        1.4678024366
 C        -5.4146046659        2.2119162248        1.7647073573
 C        -4.9941215657        2.4089932169        3.2401973193
 O        -7.3065201052        0.3412886636        2.9963063149
 O        -4.5073613049        2.3474345118        0.9527019787
 C        -7.1509210644        2.6101612745       -0.0349027486
 C        -7.8323618567        3.1179566398        2.3976527199
 C        -3.5382415115        2.3285351896        3.4629588708
 C        -3.1372851024        0.8383837953        3.5915597657
 C        -3.0078109019        0.1833527535        4.9872129834
 C        -1.3789692843        0.1506680323        5.1403134041
 C        -0.6709482999       -1.1136857379        4.7667534397
 C        -3.5777229050        1.0270033853        6.2269215635
 C        -3.5801120509       -1.2620978278        4.9117974868
 O        -2.8094554746        0.2617358280        2.5523860760
 O        -0.8316534470        1.1754311785        5.4671452578
 C         0.8399033168       -0.9290391061        4.7097029457
 C         1.4903097621       -2.3796123012        4.4634061902
 C         3.0785807297       -2.5532277019        4.0248402559
 C         3.5325407892       -1.8354169526        2.6918296968
 C         4.9795974384       -1.9855139218        2.2447152015
 O         0.9038414321       -3.3712734047        4.7298912041
 O         2.7461350932       -1.0133921008        2.2133065483
 C         3.8327671034       -1.7459691396        5.1938157299
 C         3.3871346826       -4.0557521574        3.9192699862
 C         5.1616942833       -1.4591082187        0.8259316230
 C         6.7048833529       -0.9941649225        0.6153199971
 C         7.0484337341       -0.4281814291       -0.7202400272
 C         8.6759230913       -0.4258704351       -1.0014308246
 C         9.3993194826       -1.7450939756       -0.7735114960
 C         6.3058931731       -0.9611706024       -1.9386884275
 C         6.8890769656        1.1648505808       -0.5537731348
 O         7.4860493316       -1.1320430532        1.5142956340
 O         9.3396583532        0.6041646010       -1.1405442663
 C        10.8558753420       -1.6204109833       -1.2109098619
 C        11.5488750363       -2.9564264826       -0.9465961895
 C        13.1139578140       -2.8937577712       -0.9513268351
 C        13.4134371388       -2.1638931873        0.4786290155
 C        14.8932783451       -2.3398769456        0.8798495923
 O        10.9335050123       -3.8942141628       -0.4583562201
 O        12.6171318373       -1.6164626313        1.0619843862
 C        13.6761247486       -4.3292161271       -1.1096649297
 C        13.7962224223       -1.8996525561       -2.0860894598
 H        -7.1655515638        1.6579936652       -8.5083534192
 H        -5.4374226096        1.8765032075       -8.6190140776
 H        -6.3397971811        1.2560067526       -7.1414085259
 H        -6.5750728035        3.7919135892       -3.1935733641
 H        -5.8483537280        2.2044626323       -3.3120676790
 H        -6.4053370599        5.0728170867       -5.3686763810
 H        -8.0530232830        4.8057189248       -4.7917893151
 H        -7.6761779004        5.6410328320       -6.3189178067
 H        -9.4230652766        2.1982857557       -5.8909715193
 H        -9.6368409197        4.0708299796       -6.1241472041
 H        -9.0866960562        3.2183463979       -7.4822708722
 H        -4.7750240602        4.2410642312       -5.2616767249
 H        -4.4641560083        4.5757895077       -3.6467954425
 H        -3.2668797030       -0.2766051042       -4.3920139801
 H        -2.4402958441       -0.9903759214       -3.0245266077
 H        -0.6408525331        1.8927281755       -2.9121234673
 H        -1.1306922021        3.3086432265       -4.0390390916
 H        -1.0605130324        1.4562465797       -4.5335168293
 H        -3.8936781051        3.1170770885       -1.4433651740
 H        -2.1797637572        2.9310873070       -1.3291419451
 H        -2.7431922555        4.3057611079       -2.1314519738
 H        -4.6115855538       -1.8377079900       -3.3648121542
 H        -5.3759961632       -0.4195836423       -2.5481358180
 H        -7.1640025819       -0.1802051822       -0.9762902878
 H        -8.2272640887       -1.4382418253       -0.7990518380
 H        -6.9205100165       -2.4605597121       -2.3202602345
 H        -6.9686773958       -3.8541580473       -1.3553912496
 H        -5.6990392016       -3.6960498159       -2.5298537467
 H        -6.0220017742       -3.9653083138        0.6727709413
 H        -4.4718700569       -4.5427609899        0.0274756648
 H        -4.3542417806       -3.2445764052        1.0487703735
 H        -9.1514877111        0.5889891367        0.3583399632
 H        -8.9492870076       -0.7352369083        1.4936273845
 H        -5.3714908972        3.4306725541        3.3295749294
 H        -5.5165146297        1.6400009329        3.8880957343
 H        -6.3125606973        3.3599044637       -0.0856247946
 H        -8.0543550655        3.1026715452       -0.2923825565
 H        -6.7780463840        1.9108066963       -0.7677488334
 H        -8.0165117012        2.6471584719        3.3555946707
 H        -7.4277490490        4.0513975991        2.6261390719
 H        -8.8145911714        3.2866301013        1.9662846736
 H        -3.3980164335        2.8289128267        4.5157274553
 H        -2.7229825417        2.8843140578        2.9122300563
 H        -0.8957225876       -1.8527986570        5.6168565716
 H        -1.2628631139       -1.3948894526        3.8311321435
 H        -4.6252926746        1.2555132128        6.0351816808
 H        -3.0274962443        1.9700610820        6.4680326881
 H        -3.7188743091        0.3764320535        7.0471799067
 H        -4.7029327815       -1.2169584639        5.0057453004
 H        -3.4011366882       -1.7278199097        3.9164275747
 H        -3.1146300121       -2.0370833602        5.5686437252
 H         1.1104211915       -0.2506351304        3.8431596187
 H         1.2249019640       -0.4977018890        5.5754803675
 H         5.6454424433       -1.3997026651        2.9991048251
 H         5.2864610637       -3.0017113573        2.0484797402
 H         3.6497202293       -0.7246664990        5.0746144734
 H         4.8938082885       -1.8496501225        5.1174284085
 H         3.3746675137       -2.0207818195        6.1185036587
 H         2.7296620828       -4.5037548781        3.1542431716
 H         4.4953835670       -4.0572027421        3.7596376618
 H         3.3864904639       -4.4672074676        4.8873898695
 H         4.5203799363       -0.6122516149        0.7982004224
 H         4.9090600164       -2.1742710754       -0.0113353037
 H         9.3501532892       -1.6191560371        0.2921346524
 H         8.9238826775       -2.7167350980       -1.0858342341
 H         5.5198621494       -0.3787265447       -2.2771855339
 H         6.0897557473       -2.0585100491       -1.7202058001
 H         7.0240190097       -0.9809292883       -2.8415258276
 H         7.8209177179        1.5858937435       -0.2467031575
 H         6.4056603526        1.4429784725       -1.4097005813
 H         6.2677687999        1.4042152524        0.2933815045
 H        10.9547362454       -1.3703730293       -2.2970394724
 H        11.4460730406       -0.7806542269       -0.7611187622
 H        15.3549770547       -3.2840812219        0.6920402684
 H        15.5913882356       -1.6531426907        0.3266160415
 H        15.2693932816       -2.4520675296        2.0104561715
 H        14.7578373323       -4.3429118237       -1.0735080876
 H        13.3393681959       -4.9238144327       -2.0175434997
 H        13.2787029822       -4.9022825832       -0.2137394897
 H        14.2254272006       -2.5562369245       -2.8183722219
 H        13.1386405442       -1.3353784828       -2.6910427712
 H        14.5563876492       -1.3308327913       -1.5021777495
 Na       -3.3966174104       -0.0729599500        0.6755617155
