155

 C        -6.3343537321        2.3003263207       -8.1770421633
 C        -6.8995394561        3.5710660727       -7.4977505178
 C        -7.7305562301        3.6345755600       -6.0587400004
 C        -7.0261625759        2.7896337783       -4.9540379435
 C        -6.0956334421        3.4483117715       -3.9048456206
 C        -7.6977562197        5.1520016256       -5.7413154571
 C        -9.1387469997        3.0077536550       -6.0868437078
 O        -6.9165690138        4.5218521273       -8.2002359484
 O        -7.1706568664        1.5298019811       -4.8743686275
 C        -4.7253515831        3.9687677846       -4.3448946026
 C        -3.4958979567        2.7967421856       -4.4635376343
 C        -2.8607668914        2.2244770949       -3.1720456676
 C        -3.3002726612        0.8504166042       -2.5215458562
 C        -3.3643446942       -0.4617259949       -3.1984799686
 O        -3.2129223545        2.3777388274       -5.4968648265
 O        -3.6402304041        0.9312771376       -1.3536143709
 C        -1.2486691508        2.0187251882       -3.4141361779
 C        -2.8821225989        3.3351686928       -2.0559546841
 C        -4.4592554851       -1.5026361079       -2.7530583950
 C        -4.1895376992       -2.0877649611       -1.3030112470
 C        -5.3963852679       -2.7605735306       -0.5312558325
 C        -6.1115980772       -1.5545369204        0.3442060968
 C        -7.3553607070       -0.8833785232       -0.1946364837
 C        -6.5081476316       -3.4105129481       -1.4499871889
 C        -4.7961375987       -3.7638054834        0.4151548914
 O        -3.2251442931       -1.8232725902       -0.6372404392
 O        -5.6370200982       -1.0484246291        1.3588473074
 C        -8.1828852309       -0.2299899184        0.9603507301
 C        -7.4190636321        0.8244211261        1.8620205830
 C        -6.9565416373        2.2885584382        1.4259834299
 C        -5.5128470247        2.4499146111        1.7584065224
 C        -4.9936357399        2.7027468601        3.1326379961
 O        -7.4165100221        0.5284042927        3.0445503500
 O        -4.6935314786        2.1582388572        0.9115556275
 C        -7.2700775196        2.5305349679       -0.1570836236
 C        -7.7744651892        3.2324643170        2.3188791574
 C        -3.4555128942        2.5168401836        3.3716347433
 C        -3.0753250974        1.0116193672        3.6382659526
 C        -2.9068167299        0.2297331884        5.1137284055
 C        -1.2472498725        0.1903036171        5.2545002971
 C        -0.5381570450       -1.1232264418        4.6653998294
 C        -3.4436287904        1.1935403648        6.1888011120
 C        -3.6385531390       -1.0355856566        5.0471739292
 O        -2.8139136258        0.3242440227        2.6874531001
 O        -0.5739038735        1.1254259076        5.7101915581
 C         0.9586872706       -0.9903197704        4.4676563991
 C         1.7532816018       -2.3810377284        4.3220430899
 C         3.3281518934       -2.3581637322        4.1167775182
 C         3.5909074906       -1.7209251083        2.6651472753
 C         4.9035964865       -2.1795141755        1.9880790135
 O         1.1510243753       -3.4188100905        4.0886390222
 O         2.7097816081       -1.0372930842        2.1388390558
 C         4.2020510320       -1.6490018463        5.2822748787
 C         3.8660975780       -3.8800460149        4.1581912298
 C         5.1120938859       -1.3255751275        0.7218047906
 C         6.6131168041       -0.9806259809        0.5438516061
 C         6.9478483082       -0.2318831676       -0.8161830286
 C         8.5880751026       -0.3674908358       -1.1195467934
 C         9.1805654591       -1.7506895613       -1.0119168140
 C         6.4176875776       -0.7483481538       -2.1479994729
 C         6.4297174357        1.2277509946       -0.4944229720
 O         7.4755037712       -1.1374361971        1.3907259208
 O         9.2458518503        0.5292513308       -1.4730601304
 C        10.7534855165       -1.8063215842       -1.1109382255
 C        11.5408196027       -3.1275704471       -0.8475898698
 C        13.2546340612       -3.0954968208       -0.9715167276
 C        13.8311467740       -2.5047239723        0.4614165801
 C        15.1889185748       -2.6950136744        1.0345681606
 O        11.0392608688       -4.1926021590       -0.6537409216
 O        12.9431073722       -1.7466274384        1.0935103068
 C        13.6806674268       -4.5705000120       -1.3251609540
 C        13.8019900254       -2.0273880223       -2.0062228777
 H        -6.8060248767        2.2565527933       -9.1826566989
 H        -5.1963682849        2.3826273855       -8.0629859047
 H        -6.5328120420        1.3701366267       -7.6286403251
 H        -6.7054259462        4.3038480069       -3.4915608095
 H        -6.0055794078        2.6833801386       -3.0875487127
 H        -6.5745723905        5.4291035603       -5.6869968381
 H        -8.3743152939        5.3622558358       -4.8194634562
 H        -8.1602647447        5.5001544200       -6.6354879178
 H        -9.5453391925        3.6528578084       -5.3825336343
 H        -9.6490411604        3.0016120881       -7.1145332419
 H        -9.1516296860        1.9874539434       -5.7113906682
 H        -4.8926891200        4.3261807781       -5.3885374114
 H        -4.3189941805        4.9016759072       -3.7988950064
 H        -3.4785053513       -0.2383487614       -4.2565193408
 H        -2.3819122052       -0.9599047917       -3.0419179882
 H        -0.9529830154        1.1809140764       -2.7810119097
 H        -0.5569966831        2.7853160131       -3.2261305672
 H        -1.0935901164        1.5364990209       -4.3512210634
 H        -3.8037981964        3.5638542627       -1.6113620716
 H        -2.1576930259        2.9904222587       -1.1959439887
 H        -2.5068277724        4.2556730556       -2.4646373876
 H        -4.2885233883       -2.4107744317       -3.5323440380
 H        -5.3990543855       -0.9634514069       -2.7392707735
 H        -7.1432155009       -0.2303035787       -1.0230354573
 H        -8.0680220856       -1.5014130019       -0.7093645703
 H        -6.8461138703       -2.7437696289       -2.3393104079
 H        -7.4019282801       -3.7462119861       -1.0072461484
 H        -5.9865226507       -4.2878200317       -1.9089156514
 H        -5.4698159110       -4.4744056330        0.8293863221
 H        -4.1723525059       -4.4170555676       -0.2263818233
 H        -4.1190426658       -3.4454319593        1.1683462546
 H        -8.9584349913        0.2789152455        0.5477289026
 H        -8.7672041254       -0.8063663325        1.6449584849
 H        -5.2701977394        3.7212904692        3.4374383923
 H        -5.5486004366        1.9543489965        3.6426362761
 H        -6.5266113581        2.1068947397       -0.8425614610
 H        -7.4369192563        3.6401847709       -0.2872156255
 H        -8.1437303024        1.9151130684       -0.4728413884
 H        -7.3032597268        3.2468608027        3.3312962641
 H        -7.4950594799        4.2955062272        2.0711234676
 H        -8.8297634224        3.1288879354        2.4610479022
 H        -3.1407660447        3.1179642338        4.1156981495
 H        -2.8369526872        2.7652666629        2.5445907424
 H        -0.7491771163       -1.7496585374        5.4906603774
 H        -1.0406419538       -1.4566253693        3.7936930444
 H        -4.1348682894        1.9602740172        5.7593740996
 H        -2.6718240007        1.7265119496        6.6907968187
 H        -4.1501097413        0.6748005578        6.9068244395
 H        -4.6498108040       -0.7883663903        4.7096440276
 H        -3.2358894334       -1.6849393743        4.2409629557
 H        -3.5582649887       -1.7024150407        5.9105496446
 H         1.1040441797       -0.4843830671        3.5295808089
 H         1.6059302367       -0.4604795760        5.3026841598
 H         5.6729649997       -1.9572950604        2.6381795709
 H         4.9312934748       -3.1704943906        1.5377804911
 H         3.8642062428       -0.6604155292        5.6259288596
 H         5.2138534029       -1.5687707325        4.9287937100
 H         4.0874218639       -2.3647353971        6.1803795267
 H         4.0720201376       -4.2463179186        3.1436412855
 H         4.5685640745       -3.9635224396        4.9930872431
 H         2.9411099802       -4.4828777586        4.5314897577
 H         4.5706352925       -0.3993341827        0.8751771881
 H         4.8943109346       -1.8018039155       -0.1823090264
 H         8.7995951674       -2.2674490876       -0.0659239766
 H         8.8907985062       -2.2855629059       -1.9267563043
 H         7.1609790447       -0.4287386155       -3.0117930020
 H         5.4177819193       -0.4001478608       -2.3942386429
 H         6.2970800082       -1.8075573028       -2.1641375793
 H         7.0405292421        2.0226375860       -1.0279772051
 H         5.3206342411        1.1013165036       -0.6920677458
 H         6.7535638813        1.5633775930        0.5383712923
 H        11.1278473024       -1.2065320931       -1.9208778799
 H        11.2567446499       -1.2863466135       -0.3130528863
 H        15.9577077001       -3.3196280619        0.5195801844
 H        15.6468128918       -1.7078930095        1.3010239119
 H        15.2440818623       -3.2246850455        1.9221039500
 H        14.7959677966       -4.7665906339       -1.1971505612
 H        13.2997288098       -4.7334107483       -2.3012467117
 H        13.2064146338       -5.2661396394       -0.6692550678
 H        13.4982914643       -2.1487541716       -3.0531576518
 H        13.3051826072       -1.0707900673       -1.7379666183
 H        14.8728810850       -1.9940304972       -1.9746759092
 Na       -3.4524346814        0.0367569667        0.7277462797
