155

 C        -6.5463147421        2.9058163264       -7.8697909511
 C        -7.2092467713        4.0300590382       -7.2327935404
 C        -7.9045965247        3.8237569991       -5.7829480215
 C        -6.6718689455        3.2552829872       -4.8592757632
 C        -5.5460875605        4.2253899275       -4.5251089887
 C        -8.5326839583        5.2559763489       -5.5449534855
 C        -9.0938058564        2.8014376978       -5.6412118188
 O        -7.1931729037        5.1508160248       -7.7303044654
 O        -6.7648545839        2.1535919640       -4.4248864115
 C        -4.2015673922        3.5591765399       -5.0053315179
 C        -4.0114376802        2.1590946301       -4.6054373385
 C        -3.3591104410        1.7775155996       -3.3064231438
 C        -4.2093134691        0.6241609448       -2.7710661994
 C        -3.9213899510       -0.7789653334       -3.3894886466
 O        -4.3208263874        1.3309646902       -5.4271022361
 O        -4.9218691404        0.8649538966       -1.8196293783
 C        -1.7779869591        1.3858076177       -3.4250757730
 C        -3.5512804919        3.0337860073       -2.2612638613
 C        -4.7061418556       -1.7925770469       -2.6171072551
 C        -4.4213739725       -1.9377790407       -1.0862268385
 C        -5.4012371482       -2.6315954210       -0.1267148759
 C        -6.0725077628       -1.4385080407        0.6566460195
 C        -7.4053429909       -0.9230120820        0.1611521560
 C        -6.4293764974       -3.5421389055       -0.9091952802
 C        -4.4931701607       -3.5876165926        0.6853262641
 O        -3.3818619429       -1.5359263185       -0.6066316640
 O        -5.5081586583       -1.0217705451        1.6063995037
 C        -8.2794850020       -0.1534446536        1.1102156260
 C        -7.5672778564        0.7048967817        2.2309011912
 C        -6.7885504996        2.1674588203        1.5903849049
 C        -5.3222105980        2.1332899321        1.8161881830
 C        -4.8484972373        2.1790969185        3.2028155851
 O        -7.4698117036        0.5164295950        3.4184403946
 O        -4.4942821368        2.2097951195        0.9150192351
 C        -7.1146433356        2.5066591560        0.1030272087
 C        -7.5191556434        3.3402208304        2.4928770302
 C        -3.3423903634        2.3824716141        3.3633623510
 C        -2.6588010047        1.0700780044        3.7584643366
 C        -2.4804946089        0.7263587849        5.3139722894
 C        -0.8770981465        0.3211945324        5.4282004389
 C        -0.3307427219       -0.8596775074        4.4063549585
 C        -2.7161977307        1.9842017106        6.1369723787
 C        -3.2735018750       -0.5182440911        5.6615715885
 O        -2.6876781120        0.1204831971        2.9282726183
 O        -0.1685300230        0.9084614602        6.2170242684
 C         1.0554901638       -1.1845824168        5.0001990703
 C         1.8460203854       -2.1228495238        4.0853277625
 C         3.4349023736       -1.9530022661        3.8170909212
 C         3.6917658017       -1.4790133697        2.3082860221
 C         4.9746896851       -2.0465406625        1.6979990127
 O         1.3430871274       -3.0791811575        3.4472306560
 O         3.0030213039       -0.6591199679        1.8096963450
 C         4.1040083091       -0.9634240132        4.8276462045
 C         4.0963796019       -3.3538129673        4.0489980888
 C         5.1797312008       -1.4239173342        0.3665218408
 C         6.6980558428       -1.1388175800        0.1832374881
 C         7.2092768830       -0.3878123456       -1.0029126408
 C         8.7869322113       -0.4216021448       -1.2960120432
 C         9.5397897971       -1.7736081180       -1.0492946122
 C         6.8293635891       -1.0393174779       -2.3699154120
 C         6.7776565771        1.0733450451       -0.8691981930
 O         7.4319551094       -1.3195207115        1.1827861304
 O         9.2395078841        0.4168899718       -1.9812512410
 C        10.9305081084       -1.8584510697       -0.4415729051
 C        11.5202884380       -3.1725184497       -0.9745209489
 C        13.0719576289       -3.3887357171       -1.0184491514
 C        13.7171291953       -3.1045683373        0.4043923917
 C        14.9661106217       -3.7497281494        0.7418942662
 O        10.8475927152       -4.1845150420       -1.2391750373
 O        13.2135430065       -2.2666026330        1.0189891098
 C        13.3550921188       -4.7591917444       -1.7968529515
 C        13.7383313433       -2.3368294996       -1.9910141852
 H        -6.1459924679        3.1952393835       -8.9112033044
 H        -6.0062777389        2.3937856688       -7.0209982771
 H        -7.3837276237        2.0978689274       -8.0613684838
 H        -5.6791362739        5.1025250821       -5.2143175148
 H        -5.6237962940        4.6466594776       -3.5214028483
 H        -7.8119267766        6.1229476599       -5.5011056864
 H        -9.0244075576        5.1930465196       -4.6148244655
 H        -9.2565356484        5.1616023888       -6.3769103355
 H        -9.0344556902        2.6988719030       -4.6108166788
 H       -10.0738747913        3.2057928189       -5.9844826797
 H        -8.9861692810        1.9238996374       -6.1832207063
 H        -4.1138736794        3.5719202114       -6.1518549101
 H        -3.3434361004        4.2339789743       -4.6864843201
 H        -4.3518623717       -0.8221710458       -4.4223980987
 H        -2.8848145641       -1.0041957409       -3.6162503879
 H        -1.5554522196        0.6691458399       -2.5544807772
 H        -1.1491686875        2.2479427059       -3.1703648242
 H        -1.4844032237        0.9793134697       -4.3449898634
 H        -4.6031956897        3.1975800652       -1.9460826063
 H        -3.0807181289        2.6001103712       -1.4044660965
 H        -3.1012956026        4.0006386268       -2.4513240070
 H        -4.4309562058       -2.7053454567       -3.1100746411
 H        -5.7310827746       -1.5510771650       -2.7930656956
 H        -7.0856620411       -0.2708239352       -0.6223813854
 H        -8.0709978714       -1.5883009374       -0.3802156583
 H        -7.0318057596       -3.0613689449       -1.7279804964
 H        -7.0585960693       -4.1161474405       -0.2303063669
 H        -5.8607664422       -4.1857393060       -1.4549819524
 H        -4.7965801053       -4.3987437343        1.4343729402
 H        -4.0761608645       -4.0777758274       -0.1158615044
 H        -3.8349874261       -3.0261323221        1.3295280034
 H        -9.0133760462        0.6384957754        0.7719818255
 H        -8.8455966192       -0.8143171973        1.7869201993
 H        -5.4146198637        2.9536473367        3.6548055182
 H        -5.2440588083        1.2677603138        3.7090691523
 H        -6.2033181909        2.3678831066       -0.4036007239
 H        -7.2608569897        3.6125363253       -0.0177801201
 H        -7.9241439502        1.9372131051       -0.3979756646
 H        -7.6724642948        3.2372295187        3.5460564755
 H        -6.8990924562        4.2524959630        2.3422140826
 H        -8.5512609310        3.7359333338        2.1449861056
 H        -3.1307405441        3.2919385873        4.0335691197
 H        -2.9752450659        2.5780782290        2.3196576219
 H        -1.1085492922       -1.7053594130        4.4360735355
 H        -0.1903137673       -0.4787627100        3.4406035753
 H        -3.6330879790        2.4253389980        5.8380947378
 H        -1.9630121627        2.8080782817        6.1374901229
 H        -2.6807722904        1.7272514596        7.1734969359
 H        -4.3326630178       -0.3179626819        5.7066828110
 H        -3.2023874216       -1.2702943084        4.8802094508
 H        -3.0323952045       -0.9103966097        6.6515420626
 H         1.6243733723       -0.2579541921        4.9622842675
 H         0.9673073193       -1.6640986780        5.8798358761
 H         5.7982638403       -1.9042470920        2.4385463926
 H         4.8616943198       -3.0545329414        1.5529487114
 H         3.5920430901        0.0525708093        4.9786198104
 H         5.2272252135       -0.7845649187        4.8059410736
 H         4.0260089990       -1.4863493341        5.7604841893
 H         4.9015572246       -3.2545174390        4.7132585728
 H         3.4635210448       -3.9491669815        4.6598970648
 H         4.3399843609       -3.8538107380        3.1240376173
 H         4.5721027784       -0.4518902376        0.1726576905
 H         4.7028188079       -2.1527554689       -0.3690560667
 H         8.9566195244       -2.2970472744       -0.3184576827
 H         9.6443518225       -2.3223152065       -1.9798515145
 H         5.9741484859       -0.6212137547       -2.8674466373
 H         6.5517890341       -2.1010123214       -2.2972568989
 H         7.4782355582       -0.7294917277       -3.1664072582
 H         7.5173922845        1.7999496497       -1.1309603960
 H         5.9507402302        1.3494153589       -1.6303944838
 H         6.4362989664        1.1515318538        0.1963663425
 H        11.5192580761       -1.0046754949       -0.7418347213
 H        11.0183488167       -1.8518624527        0.6806149917
 H        15.4208000528       -4.3260600233       -0.0871387427
 H        15.6763369520       -3.1220539604        1.3240647874
 H        14.8617565687       -4.3528394298        1.5447018288
 H        14.3772411952       -5.0291630091       -1.5921079828
 H        13.1281410919       -4.6096394279       -2.8482943939
 H        12.8290460147       -5.6341860050       -1.3717678178
 H        14.0186885373       -2.6799973806       -2.9885934230
 H        13.1466592837       -1.4495249157       -1.9942865553
 H        14.6968828939       -1.8924475973       -1.6248554026
 Na       -3.3170782797        0.4210628350        0.7703185961
