155

 C        -7.1314762785        3.1188048238       -8.1452016673
 C        -7.4064424953        4.2280238217       -7.0650399252
 C        -7.9096316917        3.8734930523       -5.6416573515
 C        -6.4888676507        3.7791102905       -4.7189486049
 C        -5.1171723492        4.5013330932       -5.1209645154
 C        -8.7187852663        5.0233656384       -4.9435968301
 C        -8.6494762955        2.5028862651       -5.5940098140
 O        -7.2223562437        5.3855775358       -7.4113175633
 O        -6.6332789766        3.3336406604       -3.6166784718
 C        -4.0490595505        3.4377859641       -5.4014390488
 C        -4.3508979258        1.9319419305       -4.8727675780
 C        -3.8932177085        1.7206916799       -3.4119496204
 C        -4.6982781764        0.4381217728       -2.8067022642
 C        -4.4714630982       -1.0437869843       -3.4309714149
 O        -4.7125196188        1.0170244479       -5.5149621876
 O        -5.3467781214        0.4057152313       -1.7707272010
 C        -2.4096262014        1.4654971532       -3.7132552044
 C        -4.0939864776        2.7922383293       -2.3892552619
 C        -4.8626310757       -2.1409227278       -2.3981106922
 C        -4.3297852561       -2.0744221944       -0.9745626107
 C        -5.4399282606       -2.5016811476        0.1521244526
 C        -6.0787470401       -1.2216132607        0.5947173593
 C        -7.5198760837       -0.8407425760        0.1929946353
 C        -6.3820047647       -3.6606089016       -0.3244861260
 C        -4.5370800352       -3.0127647697        1.3421798613
 O        -3.1651335787       -1.7907127914       -0.7188576598
 O        -5.4369546720       -0.3484013931        1.1536860402
 C        -8.1974150211       -0.2272566474        1.4624204811
 C        -7.3104247403        0.7222857704        2.2839745926
 C        -7.0567439564        2.2409305989        1.8278985260
 C        -5.4149213215        2.3177263013        1.8379636403
 C        -4.7950869616        2.4914917350        3.2946545099
 O        -7.0853098673        0.4978608011        3.4478137687
 O        -4.7131097902        2.0741745119        0.8570584079
 C        -7.3823147198        2.6102251830        0.2646667485
 C        -7.6992853682        3.2730311013        2.6777590557
 C        -3.3114066039        2.2911623209        3.3634809138
 C        -2.6937000194        0.9350349541        3.8946040365
 C        -2.2280967887        0.8533810338        5.3654267440
 C        -0.6650689108        0.4852044951        5.5530703548
 C        -0.0784332393       -0.5624529837        4.5460244213
 C        -2.5604912766        2.1301413473        6.1856106511
 C        -2.9177137357       -0.5114773676        6.1299807205
 O        -2.4472645462       -0.0288734980        3.1058098289
 O        -0.0332688368        0.9996642141        6.4715364501
 C         1.1779675698       -1.1028427223        5.1263648730
 C         1.9404845787       -1.9099605737        4.0326351214
 C         3.5415975427       -1.8496559896        3.6881670051
 C         3.8318953043       -1.4395817976        2.2480105333
 C         5.0260737428       -2.0111955626        1.4633860625
 O         1.1996060621       -2.5319773250        3.2786826021
 O         3.1677830699       -0.5828100666        1.7513929165
 C         4.2508233593       -0.8278852316        4.5910018299
 C         3.9818078941       -3.2603793144        4.1589239907
 C         5.3338775787       -1.1179966920        0.2539231344
 C         6.8296643525       -0.8936193844       -0.0908011057
 C         7.3528487914       -0.4264228128       -1.4158000965
 C         8.9098513299       -0.6871222459       -1.3530185502
 C         9.6165868577       -2.0460141199       -1.7041490187
 C         6.7703753596       -1.0673624162       -2.6711310726
 C         7.0272037112        1.0203931532       -1.5716606414
 O         7.6621937926       -1.0415377456        0.7581446834
 O         9.5991098154        0.2223876823       -1.0447606319
 C        11.0190750788       -2.1595491367       -0.9763020693
 C        11.6079492122       -3.4785636008       -1.2991007773
 C        13.1245331600       -3.6169134234       -1.2853270720
 C        13.6725542273       -3.4673984614        0.3392892216
 C        14.8001178537       -4.2656841981        0.7607962772
 O        10.8852673507       -4.4126685795       -1.5096690543
 O        13.0719958883       -2.7339319094        1.0307388754
 C        13.4730795144       -4.9041000027       -1.9292494591
 C        13.8351984359       -2.3398679225       -1.9489927424
 H        -6.3594329755        3.1888742258       -8.9644991060
 H        -7.0468074962        2.0839062978       -7.5148845277
 H        -8.1864658671        3.0403027110       -8.5885084014
 H        -5.3171908528        5.0874176404       -6.0926367327
 H        -4.8849888456        5.2825302448       -4.4031172195
 H        -8.0740348245        5.9561364270       -5.2202384210
 H        -8.8304973495        4.6725683090       -3.8410608771
 H        -9.5935261380        5.2264983808       -5.4730481199
 H        -8.8086262949        1.9107500820       -6.5139765597
 H        -7.9928945112        1.9317938281       -4.8542455433
 H        -9.6118899505        2.5975050329       -5.1936067056
 H        -3.9673411558        3.2775939470       -6.5275928103
 H        -3.0364627945        3.8494334426       -5.0483948586
 H        -5.1026499017       -1.2218369852       -4.3367237816
 H        -3.4784351172       -1.2016804555       -3.8330335471
 H        -1.7304375158        1.5419749297       -2.8637267917
 H        -2.2171445330        2.1958824186       -4.4620511370
 H        -2.2161602182        0.5469171572       -4.2471648197
 H        -5.1140599823        2.8201379687       -2.0717281828
 H        -3.4057233896        2.6557674672       -1.4886088355
 H        -3.8478586756        3.7763754122       -2.7447224583
 H        -4.6617208865       -3.1969079381       -2.6820958098
 H        -5.8537920500       -2.0613406331       -2.3149908615
 H        -7.3136841129       -0.1155894326       -0.5742030046
 H        -8.3326846853       -1.4937747485       -0.1145595597
 H        -7.0227541755       -3.3483450231       -1.2482059796
 H        -7.0201035924       -3.7824876665        0.4811022965
 H        -5.9154950069       -4.6427581911       -0.4290015439
 H        -5.0430935251       -2.8953500926        2.3263211736
 H        -4.3246581460       -4.0716427059        1.2029908366
 H        -3.6066885063       -2.4974582406        1.4984400916
 H        -9.0742313077        0.3704266453        1.2162422641
 H        -8.3190321137       -0.9435012638        2.3175482243
 H        -5.0397662306        3.4730253263        3.5405551017
 H        -5.3590998697        2.0057635595        4.0759413061
 H        -6.9909172696        1.7752491447       -0.3226490373
 H        -7.0138564576        3.6291712052       -0.1302892506
 H        -8.4751438778        2.8123783064        0.2073175045
 H        -7.4805555488        3.1571382541        3.7233711651
 H        -7.5512879837        4.3209813676        2.3833028091
 H        -8.8045721675        3.2040606362        2.5728491420
 H        -2.8269310261        3.1533614972        3.7493811250
 H        -3.1101943402        2.2827597968        2.2859881741
 H        -0.9063197808       -1.3465577311        4.3924873075
 H         0.0281886350       -0.0454700315        3.6740849370
 H        -3.6113159361        2.3739015121        6.4210314397
 H        -2.1610764017        2.9594690398        5.5652601395
 H        -2.0260081732        2.1718594541        7.1644880770
 H        -3.9934106077       -0.5060983626        6.3319357721
 H        -2.5178926152       -1.3687029351        5.5109744033
 H        -2.5969356338       -0.7011255233        7.1919880456
 H         1.8844505263       -0.3292059906        5.3884567085
 H         0.9032111539       -1.7324521193        5.9521432843
 H         5.8744155402       -2.0858106256        2.1128856961
 H         4.7091892495       -2.9642240372        1.3059154244
 H         3.9273340413        0.2041369009        4.4196654453
 H         5.3260984670       -0.8268455191        4.4569821721
 H         4.0664630150       -0.9130459298        5.6653489491
 H         4.6893186780       -3.7032754455        3.4299334303
 H         4.5824556011       -3.3023883553        5.0946245941
 H         3.0447994165       -3.9447642121        4.3213833778
 H         4.7594525454       -0.1193635509        0.4057693642
 H         4.8283413620       -1.4972308808       -0.6545542602
 H         9.0217182494       -2.8474586404       -1.2481776125
 H         9.7891358499       -2.3301156322       -2.7539258828
 H         5.7937051058       -0.6479831050       -2.9986312146
 H         6.6377247633       -2.1364804494       -2.7210330302
 H         7.4276760498       -0.9721274690       -3.4848883654
 H         7.6591112234        1.5483014705       -0.8259491214
 H         7.3778540982        1.6341780091       -2.4571862134
 H         5.8934027265        1.2115050126       -1.6821289210
 H        11.6942165184       -1.4055165464       -1.2566663692
 H        10.6947013371       -2.0929279580        0.1010019070
 H        15.0476431286       -5.1107488030        0.0826978287
 H        15.7076119756       -3.5966527661        0.7406483460
 H        14.7118727389       -4.4773123259        1.7979484597
 H        14.0690305731       -4.7070895967       -2.8397502187
 H        12.6517900136       -5.4721092736       -2.3128937159
 H        14.0403335443       -5.5352192327       -1.2377594105
 H        13.3343156081       -1.9511656482       -2.8245432296
 H        14.0530543823       -1.4770731707       -1.3537163077
 H        14.8118130776       -2.6073355927       -2.3036723448
 Na       -3.3127476228       -0.0608161821        0.8832969399
