155

 C        -7.4422707141        3.2892352113       -8.2292686587
 C        -7.3839191790        4.3504832313       -7.0740431356
 C        -7.8190242348        3.9165970456       -5.6677332964
 C        -6.6019707349        3.9367725373       -4.5937156729
 C        -5.1922129489        4.3058428578       -5.2216038677
 C        -8.8838477154        4.9648661721       -5.1013858918
 C        -8.4646652223        2.5021274934       -5.2248037406
 O        -7.3049260880        5.5660641201       -7.2916548900
 O        -6.7059588340        3.7689726591       -3.4205409604
 C        -4.2709826451        3.1137295722       -5.6092105509
 C        -4.5594492521        1.7497625577       -4.9235499711
 C        -3.8409156566        1.5402942123       -3.3037977736
 C        -4.7150148344        0.3712068529       -2.7668795416
 C        -4.2889743366       -1.0173722889       -3.2116634238
 O        -5.3036931840        0.8370544981       -5.3758797052
 O        -5.6825154313        0.5795245918       -2.0321101414
 C        -2.3756187573        1.0705716573       -3.3138450969
 C        -4.0012108032        2.7983292760       -2.4270303446
 C        -4.9730527679       -2.1224838614       -2.4715137179
 C        -4.3581426248       -2.1404179274       -1.0618091080
 C        -5.3803960642       -2.4100184501        0.2162299312
 C        -6.2256067907       -1.1244813840        0.6681304385
 C        -7.6989919900       -0.9717501103        0.4603834458
 C        -6.1583395119       -3.6815594890       -0.1554478203
 C        -4.5185920976       -2.8015426313        1.4897367752
 O        -3.1792961742       -1.8924467539       -0.9847163184
 O        -5.5030684886       -0.2917538202        1.1768942923
 C        -8.3190673785       -0.0568198442        1.5035942322
 C        -7.2947592916        0.9390715596        2.2767680511
 C        -6.8925368662        2.2925466813        1.8813463471
 C        -5.3078746953        2.2371610316        2.0344553805
 C        -4.7552540837        2.4169752538        3.4597962580
 O        -6.8970929164        0.4460034440        3.3214329305
 O        -4.6610569216        2.0723525587        1.0105809782
 C        -7.3322174310        2.5588282939        0.4773854223
 C        -7.6943187653        3.3988245139        2.8968541765
 C        -3.1597823795        2.3100223831        3.2402579824
 C        -2.6112412757        1.0113171647        3.8512248401
 C        -2.2176136480        0.8925906425        5.3644674392
 C        -0.6561562757        0.6533815171        5.5757286970
 C        -0.0219204906       -0.4470852031        4.5832605791
 C        -2.6271057425        2.1418429281        6.2409647873
 C        -2.8507330194       -0.3463618628        6.0055954911
 O        -2.6387286070        0.0321475615        3.1496585471
 O        -0.0683328081        1.1405455720        6.4901820791
 C         1.4805835976       -0.8634570834        4.9326536143
 C         2.0938924901       -1.8261401961        3.9027728466
 C         3.6382913227       -1.8639456520        3.6729479103
 C         3.8408902918       -1.4042267731        2.1703002556
 C         5.1506476624       -1.8193063312        1.3593895245
 O         1.2833566198       -2.3196254974        3.1563796659
 O         3.0582629406       -0.5658699448        1.7667500657
 C         4.2687120368       -0.7878761817        4.5601750147
 C         3.9737367542       -3.2829363905        4.1150587285
 C         5.3295028641       -0.9582690810        0.1296137184
 C         6.8583091643       -0.8904621363       -0.2317095547
 C         7.4223938097       -0.4182723481       -1.6002430366
 C         9.0328113107       -0.7105602574       -1.3240081444
 C         9.5649285634       -2.0206416891       -1.8542933463
 C         6.8682802507       -1.2375053241       -2.7703817832
 C         7.3725175575        1.1157351478       -1.8546337978
 O         7.6495520747       -1.1270887856        0.6817658741
 O         9.5899413958        0.0690367747       -0.5721812156
 C        11.0039056822       -2.1494683206       -1.3658229763
 C        11.5904681906       -3.5680046093       -1.4013364903
 C        13.1988961794       -3.7987362699       -1.2603550585
 C        13.5077909950       -3.7172083313        0.1907252413
 C        14.8497046566       -4.3730385090        0.7511481525
 O        10.9127057364       -4.5419799773       -1.7276275019
 O        12.8522446528       -2.9224190552        0.9394472488
 C        13.6184011936       -4.9940144106       -2.1058296667
 C        13.9293877064       -2.5806682801       -1.8394879476
 H        -6.8751036976        3.6744674944       -9.0499633710
 H        -7.0832967775        2.3363492471       -8.0490835362
 H        -8.4668067450        3.2964557942       -8.6107540510
 H        -5.4377921236        4.7907067594       -6.0945200130
 H        -4.6671682349        5.0974246639       -4.6302038728
 H        -8.7110075359        5.9223055388       -5.4594724212
 H        -8.8692711337        4.6889032304       -4.1568907538
 H        -9.8991922002        4.8320712686       -5.5449458132
 H        -7.6454840215        1.7806247136       -4.9989319336
 H        -8.9574585633        2.4892075497       -4.2797629741
 H        -9.0400667162        2.0224279353       -6.0268188584
 H        -4.2713299088        3.0185530121       -6.6958086885
 H        -3.2785531444        3.2858352173       -5.2773396660
 H        -4.5139542207       -1.1557726589       -4.2627702326
 H        -3.1828278107       -1.2838123569       -3.2004776576
 H        -2.4579612540        0.3692745691       -2.4462465090
 H        -1.5961638477        1.9446948065       -3.2036914705
 H        -2.0441757911        0.4116277119       -4.1512036587
 H        -5.0505655766        3.1965358446       -2.2849745842
 H        -3.5902187950        2.5286597458       -1.5260378201
 H        -3.4083403019        3.6809435722       -2.7892436750
 H        -4.7734769094       -3.0811946798       -2.9278328579
 H        -6.1955673101       -2.0944695448       -2.4081942781
 H        -7.8136822438       -0.6440783267       -0.5937833129
 H        -8.3229580706       -1.8587721825        0.6662339322
 H        -6.9847005703       -3.4443141667       -0.7828396125
 H        -6.5737753156       -4.2808734344        0.7205190429
 H        -5.4629259900       -4.3314730766       -0.5869174515
 H        -5.0499839042       -2.4498453990        2.4268520229
 H        -4.3379194433       -3.8563630770        1.5954470430
 H        -3.4436677117       -2.4050376232        1.4919665751
 H        -9.1094370731        0.5388496442        0.9631334485
 H        -8.6313058013       -0.5965531046        2.3684134329
 H        -5.1519058667        3.2560114724        4.1347160644
 H        -5.1000143260        1.5940666401        4.1009340495
 H        -6.6204163300        2.1794927279       -0.2300109260
 H        -7.4609503616        3.5752860899        0.4673303624
 H        -8.3471814527        2.2146898740        0.3519440103
 H        -7.6636445766        3.2363888575        3.9941151214
 H        -7.3347040570        4.4262718473        2.7439856715
 H        -8.7658151083        3.5165989318        2.6372349301
 H        -2.7194748321        3.2269469117        3.8020698909
 H        -2.9907156516        2.4916568009        2.1332041977
 H        -0.7694008140       -1.1487804122        4.6580454241
 H        -0.1462227686       -0.0197498537        3.4975855625
 H        -3.6074273216        2.4892386645        5.9607647541
 H        -1.9211409749        2.9652112546        6.1088117766
 H        -2.7994037480        1.9314046376        7.2622155313
 H        -3.8633567336       -0.0980620905        6.3156923584
 H        -2.8446092898       -1.1417771150        5.3414177834
 H        -2.3699739027       -0.7071687333        6.8830582169
 H         2.1812610301        0.0004401869        5.0461704851
 H         1.6816618358       -1.4153825005        5.8750132013
 H         6.0466999478       -1.7475859505        2.0579711402
 H         4.9788023384       -2.9713762297        1.2208332428
 H         3.9136486780        0.2572311606        4.4102336613
 H         5.3902232868       -0.6955418178        4.5955369203
 H         3.9132665697       -0.9119130803        5.5702931184
 H         4.8676480751       -3.7326588329        3.7542407854
 H         3.9790586036       -3.2662973564        5.1746075120
 H         3.2160085609       -3.9458403039        3.9016383783
 H         5.0317434630        0.0649762412        0.2454045973
 H         4.6045895370       -1.2880831369       -0.6666934832
 H         8.9225281434       -2.8429964433       -1.5436572620
 H         9.5915669206       -2.0792083700       -2.9402276888
 H         6.0615191425       -1.8106062110       -2.3762017236
 H         7.5616496360       -1.8796132885       -3.3871162662
 H         6.5508727631       -0.7736362737       -3.7551361899
 H         7.3947294503        1.6137497454       -0.9386145924
 H         8.1643864486        1.5847024182       -2.3598738983
 H         6.6462292163        1.3708485261       -2.5166474722
 H        11.6081392229       -1.3552348041       -1.9165826186
 H        10.8187212717       -2.0004640407       -0.3309039109
 H        14.7601261844       -5.5511137569        0.6535319076
 H        15.7764895091       -4.1130496203        0.1656409079
 H        14.8788194075       -4.1311399443        1.7571556448
 H        13.8171681737       -4.7505642648       -3.1191383791
 H        12.8877267357       -5.8385344604       -2.1792257479
 H        14.4482873571       -5.5321723357       -1.6186225392
 H        13.7289737256       -2.2412133911       -2.8696981954
 H        13.7686886257       -1.6082365389       -1.3401956971
 H        15.0333156530       -2.7769135849       -1.7327875139
 Na       -3.2108451170       -0.2454640328        1.0217571674
