155

 C        -8.7490401764        4.0837218481       -8.0824946829
 C        -7.8405260855        4.6063236840       -7.0431685205
 C        -8.0874957996        4.3702519695       -5.3292511841
 C        -6.8565812881        4.5943799388       -4.4022346391
 C        -5.4696283902        4.2277495048       -4.8128225597
 C        -9.4511282497        5.1881412842       -4.9200946057
 C        -8.5616227687        2.8118175494       -5.3009098582
 O        -6.7343117624        5.1230195801       -7.4136569475
 O        -7.1798271357        5.3357749238       -3.4877094838
 C        -5.2373924140        2.7378387804       -5.3936069852
 C        -5.2682822330        1.2511518182       -4.7798905321
 C        -4.2966073790        1.1282879021       -3.3835477337
 C        -4.8057916336       -0.0526683119       -2.6546953837
 C        -4.7901449239       -1.5400200143       -3.1615211921
 O        -5.7304558938        0.3296269404       -5.4120285340
 O        -5.5638663748        0.1379651291       -1.7094515835
 C        -2.8066537956        0.8953078817       -4.0465917908
 C        -4.2774036193        2.4231498846       -2.4441264124
 C        -5.1455334409       -2.6315170150       -2.0841273218
 C        -4.5765258948       -2.3751730957       -0.6654387343
 C        -5.4477674791       -2.8496251131        0.6783733324
 C        -5.9220625977       -1.4640130604        1.5205544341
 C        -7.4500692551       -1.2530070812        1.8690858250
 C        -6.7574639863       -3.6843665803        0.2793815672
 C        -4.5480925437       -3.8297967304        1.4548240253
 O        -3.5177786702       -1.7809104469       -0.5408229945
 O        -5.1828337365       -0.6161170961        1.9721555602
 C        -7.8307156538        0.2708894248        1.6419541208
 C        -7.0721148369        1.2863278557        2.5192492934
 C        -6.5986443528        2.7094418837        1.9697181116
 C        -5.0670351383        2.5341101946        2.2399606149
 C        -4.6010939902        2.8888383523        3.5743647474
 O        -7.0297393355        1.1568843498        3.7077192891
 O        -4.3920809433        2.2202301469        1.2972742892
 C        -7.0894939518        3.0017994604        0.6387631062
 C        -7.2945448112        3.7120493748        2.9746677144
 C        -3.0157787930        2.6936713412        3.7379137828
 C        -2.6326928919        1.2632649085        4.1108742728
 C        -2.2500934102        0.8201302999        5.5948361916
 C        -0.5173411769        1.0453393064        5.5057906797
 C         0.4615626892       -0.0700032047        5.1445851410
 C        -2.6786108708        1.9653642401        6.5845387479
 C        -2.6847173149       -0.5730038506        6.0257211853
 O        -2.6893054594        0.3625010215        3.2762717146
 O        -0.2036474857        2.0872460794        5.9606621845
 C         1.3078027909       -0.0334500428        3.7979283784
 C         2.0086960193       -1.4563345273        3.5151136612
 C         3.6198244062       -1.6404338849        3.2559056961
 C         4.0029504427       -0.9530410302        1.8198648512
 C         5.1293233307       -1.3682223417        0.8710039740
 O         1.3545475807       -2.4490538398        3.8595996477
 O         3.4129538638        0.0533841213        1.5432679055
 C         4.3443062870       -0.8919073817        4.3182095358
 C         3.8800031070       -3.1718856076        3.3217756436
 C         5.9297467977       -0.2600517974        0.3087452107
 C         7.2655672470       -0.8609307532       -0.2627759715
 C         7.9510474885       -0.6119960485       -1.7143759527
 C         9.5307853038       -0.7409940187       -1.7491285469
 C        10.0506847031       -2.1961189407       -1.6720069462
 C         7.0480905209       -1.5810798094       -2.6897891658
 C         7.7663493577        0.9565471042       -1.9566766110
 O         7.7171750991       -1.8180620124        0.2501697745
 O        10.3087281156        0.2165270808       -1.8300800512
 C        11.5373462409       -2.4804268838       -1.5460048551
 C        12.0495694446       -3.7957172742       -2.2849204897
 C        13.4157051688       -4.3575218329       -1.5967656071
 C        13.1431425401       -4.5305818286       -0.0807537052
 C        14.5683158397       -4.5655499155        0.8006326979
 O        11.5022390846       -4.1681492264       -3.2881557371
 O        12.1443569501       -4.7132709267        0.4338433732
 C        13.6879608148       -5.7614311757       -2.0498587941
 C        14.4386228599       -3.3437980699       -2.1059091119
 H        -8.4989851974        4.5667711459       -9.1531023056
 H        -8.7113264326        2.9407026070       -8.2442978873
 H        -9.8316580067        4.3750260739       -7.8060279963
 H        -5.1201581028        4.9025970093       -5.5882826450
 H        -4.8028822133        4.3577590842       -3.8962726118
 H        -9.1228601575        6.2427728790       -4.9086016100
 H        -9.7660550409        5.1103182192       -3.8531995663
 H       -10.1214665314        4.8991843334       -5.6028247520
 H        -8.8002831649        2.4262320276       -6.2387054176
 H        -7.9169927812        2.1603608423       -4.7362012345
 H        -9.4747611856        2.5955383256       -4.8550457279
 H        -5.9049773563        2.6529819792       -6.3618108774
 H        -4.2555103068        2.8922351264       -5.9090740387
 H        -5.6368715317       -1.5207908332       -3.7829260503
 H        -3.8633570918       -1.9742589199       -3.6265762068
 H        -2.0482494900        1.2327610748       -3.2787003544
 H        -2.7498497396        1.6836558876       -4.7516357975
 H        -2.6912223160       -0.0451536502       -4.5484540027
 H        -4.9221176605        3.2044798229       -2.8171478709
 H        -4.4755794589        2.2459755722       -1.4008282680
 H        -3.2488365996        2.7512480783       -2.5457732525
 H        -4.8190455036       -3.6978115902       -2.4205694055
 H        -6.1845525089       -2.9107684378       -1.9824946654
 H        -7.9544866003       -1.8874884187        1.1789816102
 H        -7.6098497287       -1.7248726245        2.8720097602
 H        -7.4473147407       -3.1601373036       -0.4142744707
 H        -7.2886437664       -3.9531387413        1.0936526581
 H        -6.4160660914       -4.5229890281       -0.2918421239
 H        -4.9524902620       -4.3105543217        2.3882363944
 H        -4.4858334609       -4.7038349011        0.7940535124
 H        -3.5663130162       -3.4106654853        1.5894134068
 H        -7.7193499823        0.6662381708        0.6014173195
 H        -8.9138816644        0.6088902500        1.8801584739
 H        -4.7352477865        3.9396098638        3.7743753222
 H        -5.1405466536        2.3577042344        4.2661844655
 H        -6.6793481418        2.1708259796        0.0606445113
 H        -6.6502624508        3.9996227752        0.2470693227
 H        -8.2297615925        3.0221636516        0.6515549440
 H        -7.1562042651        3.6109278143        4.0161793685
 H        -6.9622788459        4.7058762898        2.7266992988
 H        -8.4186013432        3.5995346321        2.8006111034
 H        -2.6246524281        3.4881349708        4.4225501234
 H        -2.5856343279        2.9461941685        2.7464979139
 H         1.1208729232       -0.0561118002        6.0213341412
 H        -0.1613396721       -0.9574233580        5.2695180372
 H        -3.6620520606        2.2254544701        6.1863216554
 H        -2.1452900518        2.9718057269        6.4144318158
 H        -2.6197282233        1.8076992578        7.6571916574
 H        -3.5685540512       -0.6019616036        6.7374810881
 H        -3.1317968757       -1.1284659375        5.1471915275
 H        -1.8735328408       -1.2307613627        6.4929163388
 H         0.6339859615        0.0838639704        2.9914375052
 H         2.0569392995        0.7074754537        3.7712066420
 H         5.7328538344       -2.1859543893        1.3833027056
 H         4.6773712792       -1.8306483813        0.0506405171
 H         4.5167955238        0.1632453822        4.0631068164
 H         5.2956714624       -1.3052671399        4.6508103357
 H         3.8528279016       -0.9148620101        5.2327502075
 H         4.8482930394       -3.4626975611        2.8497857522
 H         4.0112069157       -3.6183641037        4.3237914532
 H         3.0949185857       -3.7972840424        2.6941999982
 H         6.1907850880        0.3375482456        1.2070114110
 H         5.3420322320        0.2217805396       -0.5465040411
 H         9.5241626681       -2.8999177514       -1.0606595997
 H         9.6299354654       -2.4194411730       -2.6460961581
 H         6.0998774871       -1.0659280795       -2.9938942924
 H         6.7070949312       -2.5078187542       -2.2595744433
 H         7.7998990929       -1.8365124038       -3.4128055058
 H         7.6817517608        1.4915003887       -0.9692350447
 H         8.7043204716        1.3520585671       -2.4821437396
 H         6.7056199126        1.1640052303       -2.2741569493
 H        12.1027945097       -1.6098472138       -2.0059664702
 H        11.7426524111       -2.6818542126       -0.5240999979
 H        15.2483352236       -4.3920434570        0.0558892931
 H        14.3435635641       -3.9015525497        1.5663153970
 H        14.6937806303       -5.7515856821        1.0463216639
 H        14.6452225369       -5.7532860159       -2.4880018951
 H        13.0201752369       -6.3506578988       -2.6724993550
 H        13.9578142620       -6.4890033262       -1.2486762975
 H        14.3207717499       -3.4114455048       -3.1790307342
 H        14.2673144353       -2.3920433545       -1.7224525065
 H        15.5393291299       -3.4829326367       -1.9701238958
 Na       -3.4959670347        0.0353651412        1.1807590757
