155

 C        -9.1940018170        4.7917188284       -7.8542386639
 C        -9.4988483267        4.3412089580       -6.3399255827
 C        -8.9607147064        4.9222032194       -4.9107599039
 C        -7.7596941412        3.9692290159       -4.3131765608
 C        -6.9468038978        3.2958732643       -5.3566045951
 C        -8.5062846638        6.3950761358       -4.8953976820
 C       -10.2537426954        4.7899786090       -3.9534612220
 O       -10.1589081012        3.2874429657       -6.3853319337
 O        -7.8768174120        3.9123081096       -3.1074535604
 C        -7.3177182832        1.8056172257       -5.3477021375
 C        -7.1299472016        1.0791462382       -4.0053783002
 C        -5.5126189703        0.9066785355       -3.4668544139
 C        -5.7067618784        0.0996509140       -2.1643505710
 C        -5.3125368357       -1.4333469279       -2.3117537251
 O        -7.9338249979        0.4949372686       -3.3594264525
 O        -6.1424436021        0.5885410553       -1.1661723004
 C        -4.6725154652        0.2254485046       -4.4747615378
 C        -5.0519213874        2.3267100597       -3.1634167429
 C        -5.9114137236       -2.2558029322       -1.1047823975
 C        -5.5107789743       -1.7415899548        0.2570030240
 C        -6.3119891712       -2.2256930412        1.5691363824
 C        -6.5804947575       -0.8769045050        2.3156607953
 C        -7.9618129624       -0.3493610363        2.4891332459
 C        -7.6413867671       -2.9499770458        1.4410303127
 C        -5.3581438913       -3.1370876240        2.4945505401
 O        -4.3927882364       -1.2374641058        0.4144133480
 O        -5.6283845279       -0.4365434635        2.9702212446
 C        -7.8645868606        1.2266526751        2.3760909028
 C        -6.8544969851        1.9096374134        3.3314913108
 C        -5.8295651755        3.0429852220        2.5222459741
 C        -4.4085248442        2.4643886083        2.5970358895
 C        -3.3426300989        2.7829353606        3.7047440412
 O        -6.9100607104        1.9133713296        4.5205464832
 O        -4.1254790359        1.8621053505        1.5990726496
 C        -6.1968024512        3.3960741504        1.0975194492
 C        -5.8235088677        4.4694336096        3.4590959916
 C        -1.9428171896        2.3176759285        3.3094256981
 C        -1.4901861127        1.1027092037        4.1700064583
 C        -0.3980110339        1.3223715107        5.2383750008
 C         0.7643766597        2.1130646244        4.6269942191
 C         2.2362966590        1.3994458253        4.4486114636
 C        -1.3032118091        2.0024293957        6.3350014417
 C         0.0715135628        0.0324470503        5.7924760548
 O        -1.9382635266        0.0093874281        3.9684464311
 O         0.6419234589        3.2378304984        4.3214962651
 C         2.6244877807        0.8200638677        3.0036185791
 C         3.0916696898       -0.6582644416        3.2271633885
 C         4.4697583118       -1.1444078885        2.6046614661
 C         4.4062709195       -0.7593875115        1.1300213799
 C         5.5178545174       -1.4483832418        0.2293892308
 O         2.4468838377       -1.4652581721        3.8673096690
 O         3.5689926599       -0.0952244146        0.5547904793
 C         5.6638069760       -0.3090194944        3.1799247611
 C         4.7568126303       -2.7373394957        2.9014309458
 C         6.7640114025       -0.5157029153       -0.0412129320
 C         8.0831579786       -1.1719121415       -0.5324623794
 C         8.8210519148       -0.6608055902       -1.9336155424
 C        10.1259812700       -1.4769361604       -1.8236737606
 C        10.3860876073       -2.7262400234       -2.5419765340
 C         8.0570820424       -1.0014250795       -3.2330665723
 C         9.0804464390        0.8723956440       -1.8824076502
 O         8.5757670121       -1.9930458087        0.1754465067
 O        10.9805994111       -0.9643292627       -1.0415364284
 C        11.8656102405       -3.1497680250       -2.6284793427
 C        11.8588211437       -4.4404822819       -3.2945398854
 C        13.0578903179       -5.6180694649       -2.7361775273
 C        12.4030844452       -6.5069432210       -1.6577451780
 C        11.2594938290       -5.9214575565       -0.9331198131
 O        11.2362755478       -4.7966869191       -4.2180722750
 O        12.8856134337       -7.5648962113       -1.3244580344
 C        13.3990093909       -6.4750428980       -4.0525768219
 C        14.3069295299       -4.9067460787       -2.1184627071
 H        -9.9427647900        5.4175911467       -8.2634427992
 H        -8.4347799696        5.5057854096       -7.6999396524
 H        -8.8949619227        3.9875086725       -8.5181384425
 H        -7.2016558681        3.7413500341       -6.3767476468
 H        -5.9055914862        3.4505449110       -5.1342769125
 H        -7.8881636262        6.5521821532       -5.6858256727
 H        -8.0832740050        6.6515721529       -4.0058568157
 H        -9.3114736807        7.0568751123       -5.1572885925
 H       -10.5789878918        5.8523064689       -3.8071565609
 H       -11.0272747223        4.2204042289       -4.5782632861
 H        -9.9091624279        4.4480854788       -2.9292061538
 H        -8.3946086126        1.8191932157       -5.7027855267
 H        -6.8239080319        1.2289251046       -6.1158919400
 H        -5.5697319235       -1.7393131059       -3.3710662585
 H        -4.2074232429       -1.5510155277       -2.1648350630
 H        -3.5966109545       -0.0540478374       -4.1692115794
 H        -4.5955481236        0.8336225767       -5.3057990738
 H        -5.1089151720       -0.6743214248       -4.9164482161
 H        -5.4909922568        3.1835135194       -3.4769781786
 H        -5.1810571172        2.4295851189       -2.0292128545
 H        -3.9758321925        2.4301975184       -3.2345326896
 H        -5.6155658165       -3.2565080232       -1.1228138119
 H        -7.0064972099       -2.3023474328       -1.1938464553
 H        -8.7203626180       -0.7251103919        1.7602548872
 H        -8.3142956100       -0.6515826629        3.4823554247
 H        -8.3590094256       -2.6440548546        0.6359378898
 H        -8.3020287720       -2.7334396301        2.2527480827
 H        -7.3304109070       -4.1117398513        1.2810308884
 H        -5.7299421322       -2.9193792934        3.4678993783
 H        -5.6508415064       -4.1923657492        2.1334543427
 H        -4.2974448685       -3.0224814958        2.3571385410
 H        -7.8139235872        1.5050566255        1.2820998527
 H        -8.7667221387        1.7120926068        2.7190502225
 H        -3.3855989569        3.8030774954        3.5567898705
 H        -3.8038813119        2.4193977003        4.6801271156
 H        -5.8519673395        2.6739314401        0.3384728269
 H        -5.7476378974        4.3570349867        0.8083418910
 H        -7.2728047341        3.5400539252        1.0077538989
 H        -5.4508309813        4.2079814268        4.3801164764
 H        -5.2111206518        5.1289148506        2.9550780948
 H        -6.7900231550        5.0169375751        3.5231704803
 H        -1.2024182771        3.1749367532        3.5020607364
 H        -1.9339852893        2.0534739672        2.2536834734
 H         3.0337694032        2.1082918412        4.5149471475
 H         2.2803270892        0.5596679029        5.2072004408
 H        -1.9503215193        1.3237163646        6.8381039855
 H        -1.7327308230        2.7706934354        5.7050463187
 H        -0.7502878273        2.4693793196        7.0768320850
 H        -0.7963953481       -0.5142543426        6.1745317265
 H         0.5759814421       -0.5451502365        5.0522155146
 H         0.7537763144        0.2860013023        6.5909652170
 H         1.6848677787        0.6562542092        2.5220984676
 H         3.2750452343        1.4917170562        2.4456846324
 H         5.8360767579       -2.2784102661        0.8673003044
 H         5.1369130395       -1.8478944984       -0.6746061380
 H         5.6035399788        0.6577272109        2.7432178741
 H         6.5901223035       -0.8156688638        2.9082069160
 H         5.5480511334       -0.1667124455        4.2159677656
 H         5.8183789551       -2.7678092573        2.7343539418
 H         4.4488785940       -2.7907548024        3.9693375437
 H         4.0638638407       -3.3668013098        2.2683923951
 H         6.8535635353        0.1446599799        0.8986612687
 H         6.4909078787        0.0740771205       -0.8960690780
 H         9.8464005878       -3.5529474132       -2.0354640844
 H         9.9588295871       -2.7387687324       -3.5353818025
 H         7.3414196120       -1.8025279070       -3.1649329179
 H         8.8186972885       -1.3313206351       -3.9011608420
 H         7.6003479825       -0.1395536110       -3.5817845009
 H         9.5096194956        0.8670353550       -0.8961362193
 H         9.8700705453        1.2942325149       -2.6354735559
 H         8.2128539381        1.5402611119       -2.0319148038
 H        12.2498271508       -2.5641467451       -3.5231995964
 H        12.3843116376       -2.8955123150       -1.6128371729
 H        11.4219082008       -4.9231935871       -0.5802897323
 H        10.2446516222       -5.9565224397       -1.2405082119
 H        10.9696823000       -6.5768182792        0.1253791723
 H        13.2034765626       -5.8460477875       -4.8829467211
 H        12.7185885357       -7.3194647819       -4.1007135169
 H        14.4193159175       -6.8815216854       -3.8865872691
 H        14.4072612337       -3.8832109192       -2.5436570914
 H        14.2048513949       -4.8838158042       -0.9989648024
 H        15.1062510495       -5.5268959096       -2.4016294188
 Na       -3.4576399377       -0.1686179743        2.2105694264
