155

 C       -11.7874868039        5.2153824043       -6.0012776980
 C       -10.5239509648        4.3048776650       -5.8883284479
 C        -9.2867309487        5.0403511021       -5.1547093453
 C        -8.5521674832        3.8266976988       -4.4116167590
 C        -7.6255472946        2.7498025905       -5.2887602098
 C        -8.4692936591        5.8153266989       -6.1892358608
 C        -9.7197421866        6.0930282202       -4.1065420066
 O       -10.4442006400        3.1322182934       -6.2284753981
 O        -8.9637595226        3.6226649457       -3.2764491616
 C        -8.0610575233        1.2633622749       -4.8899135398
 C        -7.6573564214        0.7649248350       -3.4921305617
 C        -6.1849175940        0.7773228417       -3.0008126683
 C        -6.2027852485       -0.0766182085       -1.7552207361
 C        -5.9404130862       -1.6423461867       -1.7952244449
 O        -8.5217318410        0.3534750018       -2.7714486959
 O        -6.4238918336        0.4688093940       -0.6667917752
 C        -5.0186735140        0.1654474671       -3.9563168775
 C        -5.8420635805        2.2292834686       -2.5760109967
 C        -6.5551377847       -2.0177759915       -0.4180237660
 C        -5.6845254887       -1.6648386221        0.7579921119
 C        -6.3217017462       -1.7686332869        2.2079518535
 C        -6.4563572172       -0.4086555224        2.8030191384
 C        -7.7119851427        0.3286050424        2.7776931119
 C        -7.7664293479       -2.3925232234        2.2363445970
 C        -5.3643864547       -2.7225674538        3.0653797713
 O        -4.4886134797       -1.4315121450        0.7922004583
 O        -5.4587874563        0.1941508906        3.1684446124
 C        -7.4774646840        1.6269534091        1.9686415325
 C        -6.8765679871        2.6117490855        2.9242232037
 C        -5.6061232275        3.6370462843        2.5444405898
 C        -4.2389308586        2.7801446238        2.7032840945
 C        -3.4693538179        2.6402042148        4.0666258479
 O        -7.2299094483        2.7324388755        4.0877446156
 O        -3.6750466737        2.2774812045        1.7406608442
 C        -5.5222638098        4.0316523075        1.0100912607
 C        -5.5220157985        4.8295584586        3.4437493042
 C        -1.9286807643        2.6835099224        3.9959109247
 C        -1.2094294446        1.2898698196        4.3906036789
 C         0.0504262289        1.2397234476        5.3651476719
 C         1.3208400530        1.7201702320        4.5131028884
 C         2.5406694022        0.8016150658        4.4947304594
 C        -0.0291192093        2.2963172269        6.4606619206
 C         0.1535103538       -0.1825495130        5.9923992544
 O        -1.5419351729        0.3035332380        3.7336979646
 O         1.2992071612        2.7716064564        3.8817256686
 C         3.3607937035        0.8547656630        3.3095469731
 C         3.8410266569       -0.5719080408        2.9892294965
 C         5.3031435988       -0.7381653255        2.4431792133
 C         5.2133867867       -0.5706562945        0.8620519567
 C         5.8622227286       -1.7471613724        0.1674854846
 O         3.1500249611       -1.6009090290        2.8365184493
 O         4.5317706879        0.2244981561        0.2547848861
 C         6.2043217457        0.4618709743        2.9556230135
 C         5.8299533232       -2.1293370205        2.9746968130
 C         6.6544825326       -1.4384787527       -1.1976951010
 C         8.1005061839       -1.9554197382       -1.2582292920
 C         9.0984097333       -0.8331324831       -1.9562681375
 C        10.5118383548       -1.3874721729       -2.2912936110
 C        10.7466893031       -2.5499573454       -3.3154320697
 C         8.5429255010       -0.1399314563       -3.2744759078
 C         9.3001738657        0.2191233574       -0.8339470672
 O         8.6106693504       -2.9225841826       -0.7372345865
 O        11.3948625036       -0.9362192653       -1.7219365884
 C        11.3790295604       -3.7409350892       -2.5767776200
 C        11.2969820377       -5.0130956090       -3.3528226634
 C        12.7517386546       -5.9761332207       -3.1722907385
 C        12.2784570084       -7.2828864871       -2.3978916259
 C        11.7044327038       -8.4530871662       -3.2523444042
 O        10.4123970353       -5.3352644242       -4.0563648473
 O        12.1154338846       -7.1939104160       -1.1353777279
 C        13.2721703044       -6.2754649131       -4.6164962384
 C        13.8782280009       -5.3943763304       -2.2883690335
 H       -11.6548532664        6.2043019229       -6.5608098811
 H       -12.7940391604        4.6645729103       -6.2373245320
 H       -11.9500202742        5.5528998063       -4.8893231326
 H        -7.8112973718        2.9125495126       -6.3002060787
 H        -6.5408684592        2.9539828125       -4.9183745439
 H        -8.6926081116        5.6384253692       -7.3231191802
 H        -7.3100053921        5.7507886963       -5.9196012573
 H        -8.5382910551        6.8880251991       -5.9899586484
 H       -10.5536945240        6.7002578330       -4.4239628437
 H       -10.0348290500        5.4855513535       -3.3026363551
 H        -8.8365136116        6.6065157985       -3.8262357328
 H        -9.1776228849        1.2445807460       -4.8228229178
 H        -7.6811019923        0.6328153679       -5.7620330440
 H        -6.4679095944       -2.0681650412       -2.6014285055
 H        -4.8243788540       -1.7593701319       -1.9773774998
 H        -5.3400274881       -0.4913954057       -4.7018288855
 H        -4.2317409529       -0.4098741051       -3.3961237744
 H        -4.5866984229        1.0351795762       -4.5272255548
 H        -4.9993197872        2.6496798585       -3.2401723774
 H        -6.7320477328        2.8863781658       -2.6273797389
 H        -5.5192953739        2.2904981989       -1.5416348268
 H        -6.6634476703       -3.1749899570       -0.2953076565
 H        -7.5540700219       -1.6774633444       -0.4031649884
 H        -8.5731140709       -0.2370041140        2.4312853658
 H        -7.8726726859        0.7455788768        3.7862046404
 H        -8.5149618434       -1.7076200165        1.9777467867
 H        -8.0324010091       -2.6162896238        3.3442330315
 H        -7.9082549801       -3.3305828876        1.9186480986
 H        -4.8884846128       -3.5567108061        2.4780478157
 H        -4.5757798840       -2.1770390210        3.4312400962
 H        -5.9927749865       -3.1253437956        3.9201263658
 H        -6.8024039264        1.6352402725        1.0872409043
 H        -8.4841137381        2.1479593735        1.7219191831
 H        -3.6918082417        3.4557012614        4.8020810878
 H        -3.8467564557        1.8018539838        4.5523878334
 H        -5.4113708785        3.1850282403        0.2945705108
 H        -4.7718616053        4.8200770861        0.7545861795
 H        -6.4568135233        4.6135143902        0.8916172700
 H        -5.9699866585        4.7080953476        4.4436053058
 H        -4.5083531418        5.2838086681        3.5759440741
 H        -5.9778440915        5.6180253941        2.8561770815
 H        -1.5074114717        3.4869860281        4.5985066356
 H        -1.6524016480        2.9708802697        2.9971386184
 H         3.1321237141        0.8886810110        5.4870908052
 H         2.1556822482       -0.1248114595        4.6624681468
 H        -0.7621057861        2.1856878733        7.2626982757
 H        -0.1655191664        3.3112025511        6.1478661376
 H         0.9953268309        2.2340170395        6.9108278511
 H        -0.6207436497       -0.3774045043        6.6827131452
 H         0.3012516781       -0.8923768229        5.2358417588
 H         1.0241375504       -0.3238146484        6.5440499720
 H         2.6716635390        1.2196252806        2.5461643504
 H         4.0866112677        1.6981419040        3.2774433839
 H         6.5080782733       -2.2178904303        0.9540640834
 H         5.1263213231       -2.5060525816        0.0099921536
 H         6.1456143805        1.4148801066        2.4287249045
 H         7.2468861006        0.2327801244        3.0363633890
 H         6.0279489553        0.7760717337        3.9953055034
 H         6.9220654675       -2.0282585571        2.9101951874
 H         5.6099201620       -2.2987645793        4.0419351447
 H         5.3392804489       -2.9331445928        2.4004251973
 H         6.8358795966       -0.3621889742       -1.3067789631
 H         6.0115723286       -1.6891885907       -1.9935104777
 H         9.7847637320       -2.8417153953       -3.7469864084
 H        11.4535973122       -2.2029424337       -4.0579595673
 H         9.2775512923        0.4545167611       -3.8000871139
 H         7.7333811876        0.5836432519       -2.9614711680
 H         7.9638375965       -0.8381859737       -3.9487351107
 H         9.9799616458       -0.1124302373        0.0242677359
 H         9.8829676447        1.0659884600       -1.0957139467
 H         8.3324598128        0.4582008733       -0.3851114201
 H        12.4891093757       -3.5435437142       -2.5955868106
 H        11.0480108744       -3.8378222439       -1.5647116333
 H        11.3622950024       -9.1419810160       -2.5112427166
 H        10.8129956222       -8.1372616334       -3.6358615772
 H        12.6802016400       -8.9650806458       -3.8598778374
 H        12.8179076962       -5.4866407866       -5.3053119332
 H        12.9040713227       -7.2702484155       -4.9329573127
 H        14.3864012506       -6.3259405029       -4.7483325397
 H        14.5037533707       -4.7153753634       -2.9267582647
 H        13.5183109143       -4.8573493332       -1.4071928519
 H        14.5879999942       -6.1032348883       -1.7564472726
 Na       -3.3283662872       -0.0038199910        2.1131321775
