155

 C       -12.4267014431        3.6955678107       -3.9079129475
 C       -11.6987459960        4.3179532165       -5.1581465180
 C       -10.1401171060        4.0586202639       -5.1836105353
 C        -9.6293396995        3.0222373267       -4.2089984221
 C        -9.4356322520        1.5601696289       -4.7017194919
 C        -9.7034246961        3.6999470540       -6.7222943676
 C        -9.5493070588        5.4883650724       -4.9060144324
 O       -12.3090507347        5.0095979496       -5.9805229914
 O        -9.5667849519        3.2404443589       -3.0254402813
 C        -9.2410278668        0.5868504799       -3.6392390381
 C        -8.3151192251        0.8439228013       -2.3205179308
 C        -6.6420865282        0.9672887554       -2.5147524400
 C        -6.3567158080        0.1145603082       -1.1357380719
 C        -6.4124109833       -1.3810473115       -1.2272749880
 O        -8.7547184416        1.0074249126       -1.2462572888
 O        -5.9700561466        0.6698885271       -0.0925610553
 C        -6.3748389044        0.0656302983       -3.7709310731
 C        -6.2983837812        2.4513491251       -2.2621448680
 C        -6.5911731515       -2.0219953344        0.2955028114
 C        -5.9830173496       -1.1570866147        1.3627310800
 C        -6.8481508989       -0.5470318806        2.6021876087
 C        -6.4407830246        0.9259698595        3.0635340611
 C        -7.5056331441        1.9918484624        3.2208122148
 C        -8.3693554941       -0.7085814998        2.2512823899
 C        -6.6041992775       -1.5365065007        3.7252468590
 O        -4.7496219869       -1.3295945272        1.5297630938
 O        -5.2552451626        1.0164725137        3.4340351841
 C        -7.0060278177        3.1044437094        4.1199262389
 C        -5.5625770129        3.8192737356        4.0272508249
 C        -4.8737858044        4.3041907770        2.7018319944
 C        -3.6240068487        3.2718552068        2.6700993717
 C        -2.3259309380        3.4027875897        3.4830066440
 O        -5.0829091350        4.1184472711        5.0985432629
 O        -3.6718152291        2.5426577106        1.6773367928
 C        -5.7574298877        4.1847046140        1.3569550109
 C        -4.4012380464        5.7501793490        2.9510380620
 C        -1.1351866491        2.5864378207        2.9074416205
 C        -0.7713495181        1.2455645654        3.6570933891
 C         0.5810291429        0.9371799346        4.2779527139
 C         1.5961663607        0.8518358603        3.0460271668
 C         2.5935607821       -0.3286749537        2.7719512662
 C         1.1490156604        2.0333284410        5.2704544900
 C         0.4350898922       -0.3132518554        5.0993163242
 O        -1.6710999407        0.4103090741        3.6698296895
 O         1.5842228850        1.7983287730        2.2952486668
 C         3.6631457084       -0.4465592613        3.8491227157
 C         4.6758893176       -1.4524861236        3.1716536341
 C         6.1574762986       -0.8384466630        2.7913856865
 C         6.0579757433       -0.2521332660        1.4569806166
 C         6.4246122240       -0.9618039376        0.0897992155
 O         4.3321799831       -2.6245704093        3.0445514485
 O         5.4983915153        0.8483657607        1.4454904123
 C         6.6228542021        0.1042384429        3.9003510919
 C         7.1821227497       -2.0064223976        2.9136437508
 C         7.4100158197       -0.2045112247       -0.8936506386
 C         8.7598346745       -1.0542511887       -1.1932304931
 C         9.2775936566       -1.1464242122       -2.5686411247
 C        10.2124474473       -2.5083535252       -2.4901617402
 C         9.6506489949       -3.8734238741       -2.7551892804
 C         8.1323944990       -1.2245348238       -3.5859280085
 C        10.2327859740       -0.0359664992       -2.9355708405
 O         9.4406068259       -1.5619988491       -0.3121364570
 O        11.3940967320       -2.3028199613       -2.2449802394
 C        10.5898439917       -5.0485519960       -2.7762709221
 C        11.5444439704       -5.1290611250       -3.9209849667
 C        12.2391215484       -6.5969972924       -4.1180062656
 C        11.3173008763       -7.7352677995       -3.9057890832
 C        11.6829198658       -8.8621973343       -2.9123062066
 O        11.8314457859       -4.2285041896       -4.6896663155
 O        10.2881412423       -7.9344117746       -4.5475234025
 C        12.4763978335       -6.7482431949       -5.6516441630
 C        13.5070348899       -6.5253309420       -3.2146177317
 H       -12.0717495008        2.6201463591       -3.8250753031
 H       -12.0377514259        4.3248800389       -3.0524743952
 H       -13.5706916030        3.5734518356       -3.9397470798
 H       -10.3459580390        1.2953111786       -5.2633681549
 H        -8.6082014000        1.4856434858       -5.5652850377
 H       -10.0192072500        4.6188763218       -7.2078424582
 H       -10.0123635813        2.7000998018       -6.9276087085
 H        -8.5504309776        3.6163842815       -6.7593151865
 H        -9.9137357078        6.1674792136       -5.7031356375
 H        -9.9125488580        6.0356782048       -3.9909194995
 H        -8.4580191751        5.5457080850       -4.6899149618
 H       -10.1900090339        0.3330598713       -3.2422483261
 H        -8.6671390755       -0.2399786506       -4.0667012726
 H        -7.1702935347       -1.8031075812       -1.7759552409
 H        -5.3907034864       -1.6616066927       -1.5467939712
 H        -6.9362432120        0.4523453811       -4.6025554227
 H        -6.5251150688       -1.0145843958       -3.4959435751
 H        -5.3172085578        0.0673852867       -3.9871966294
 H        -5.2379427820        2.5905387907       -2.2112961828
 H        -6.8937737381        3.0551218266       -2.9368577025
 H        -6.6909775061        2.7357643400       -1.2383699063
 H        -6.0699571859       -2.9729046142        0.3613443829
 H        -7.6056068728       -2.2912830554        0.4646659018
 H        -7.7338687818        2.2148799150        2.1498794636
 H        -8.4737078714        1.5519136985        3.5639568469
 H        -8.6484237454       -0.1803077394        1.3116757201
 H        -8.9270001518       -0.1607945004        2.9119274527
 H        -8.5937010657       -1.8204324924        2.2147653067
 H        -6.3192909283       -2.5375130339        3.3831349252
 H        -5.6054595375       -1.3527149288        4.2559228957
 H        -7.3479744430       -1.6945349887        4.4891453138
 H        -7.8694025878        3.8070513180        4.0404847092
 H        -7.0373557620        2.5164566311        5.1314284716
 H        -2.0366274506        4.4225520380        3.6425919655
 H        -2.5750007004        3.0473039676        4.4784846071
 H        -5.8732518576        3.1633855998        1.2635188627
 H        -5.2853886075        4.5528833639        0.5026356792
 H        -6.7479316055        4.6537934705        1.5409998177
 H        -3.7270825349        5.8568297716        3.7376736388
 H        -3.8447155850        6.1281395364        2.0906183482
 H        -5.2202129064        6.5098799992        2.9274953004
 H        -0.2568100522        3.2516875526        2.8344015959
 H        -1.5379322905        2.3832003259        1.8481206067
 H         1.9690935468       -1.2865551189        2.6987883542
 H         2.9376232072       -0.1536359682        1.7380126609
 H         0.3209534476        2.4846488495        5.8714210030
 H         1.4634753398        2.8946635713        4.7283772269
 H         1.8797802325        1.5700035170        5.9859127182
 H        -0.0559516341       -0.0120204099        6.0664647711
 H        -0.2455880374       -1.0262646938        4.5253767173
 H         1.3625724647       -0.9304225619        5.1904329361
 H         4.1491775298        0.5082098539        4.0342997962
 H         3.2078331481       -0.8926173483        4.7775150020
 H         6.6244440835       -2.0887838030        0.2586087933
 H         5.5276637910       -0.8602386367       -0.4807059645
 H         6.8652898651        1.0764635190        3.4943427542
 H         7.5277762901       -0.3162493513        4.3989301341
 H         5.8319207401        0.1696880802        4.5729030059
 H         8.1854166312       -1.6159928931        2.9542773324
 H         7.0724312086       -2.3860658059        3.8909249507
 H         7.1326960815       -2.9133060090        2.3781089129
 H         7.7550087504        0.6052311178       -0.2375085562
 H         6.8997472631        0.1301677182       -1.7340653039
 H         8.9292517856       -4.0636431852       -1.9432396775
 H         9.0856127855       -3.6863155156       -3.6773887521
 H         8.3902603900       -1.1983706357       -4.5902874276
 H         7.3250423583       -0.4593518655       -3.4719254953
 H         7.7432076453       -2.2328374523       -3.4170064515
 H        10.9791176840        0.2229274013       -2.1377004368
 H        10.8168937156       -0.4275859092       -3.7711360418
 H         9.7042237826        0.9261781629       -3.2417219063
 H        11.2524586132       -4.6730886845       -1.9876676505
 H        10.1228301308       -5.9654802975       -2.4712055166
 H        12.1560035676       -8.4635885169       -2.0501654109
 H        11.0898942409       -9.6064141058       -2.4646090904
 H        12.5646966340       -9.5130366676       -3.3065406481
 H        13.0494271508       -7.7032231030       -5.6966485316
 H        13.0456046361       -5.9869211703       -6.1851246302
 H        11.4960738511       -6.9786821745       -6.0089247023
 H        14.1548650233       -5.7312559005       -3.5779135237
 H        13.4418288061       -6.3893746799       -2.1601573767
 H        14.3047165822       -7.2379900679       -3.3980999448
 Na       -3.4094230714        0.4726400927        2.3015784559
