155

 C         2.9268929202       -8.9560220694        6.3839666283
 C         2.3696714179       -7.5163212978        6.3402394208
 C         1.9560445670       -6.8871352356        7.8412823816
 C         1.4210214015       -5.3333214947        7.8191078232
 C         0.2976878924       -4.9353219640        6.8485336384
 C         0.7822747166       -7.7793156776        8.3366459099
 C         3.1669584150       -6.9583742759        8.7466423439
 O         2.4660898527       -6.8387660896        5.3573206453
 O         1.8538148047       -4.5496279524        8.5873919112
 C        -0.0544818732       -3.4598461803        6.8645786985
 C         0.7574772861       -2.4731733550        5.9549023811
 C         0.4736359925       -0.8621732188        6.2713471420
 C        -0.5615973623       -0.2545178697        5.2383458073
 C        -0.1872283913        0.5198247145        3.9822844503
 O         1.6280449516       -2.6836902259        5.1669325377
 O        -1.7125971955       -0.3619930399        5.5305193392
 C        -0.0406032773       -0.7580243741        7.6987274651
 C         1.8619208065       -0.1702475986        6.0591441224
 C        -1.4362050379        0.8724638987        3.1732306365
 C        -1.0431593713        1.4601967070        1.7985001917
 C        -1.1619846713        2.9441461736        1.4291753517
 C         0.1259499514        3.5060821442        0.6671571468
 C         0.9724571409        4.6911557668        1.1217762704
 C        -2.2915418962        3.1243280560        0.3237647171
 C        -1.6273867430        3.9229292669        2.6415984700
 O        -0.5973735027        0.6922489964        0.9555792113
 O         0.6173768557        2.8554759742       -0.2549196926
 C         2.2711550624        4.7878092973        0.2577142807
 C         3.3757895269        4.1180778920        1.0161604109
 C         4.8453375372        3.9015845328        0.4695689803
 C         4.9903318034        2.5079861171       -0.1372505952
 C         5.0841285521        1.3872928380        0.9305007862
 O         3.2334941403        3.6203809420        2.1399799320
 O         5.2013055799        2.4457263691       -1.3110166419
 C         5.2407841713        5.0173237055       -0.5785826993
 C         5.7880718983        4.1236131456        1.7283075337
 C         4.9768325828       -0.0003865580        0.3565297102
 C         3.5191356372       -0.2467710264       -0.1073774717
 C         3.1024183372       -1.6174026035       -0.7054062748
 C         2.3568684524       -1.1307720843       -2.0198571031
 C         3.2115815178       -0.5108346388       -3.1005119169
 C         4.1838450477       -2.6641375215       -0.8426427870
 C         1.9873094416       -2.2289169885        0.2104798583
 O         2.6990898848        0.6808048465       -0.1388749135
 O         1.1705267849       -1.3741601554       -2.1246314593
 C         2.3789992830        0.1287435028       -4.1905353418
 C         1.3278343749        1.2172346115       -3.8110919845
 C        -0.0034157257        1.4029351365       -4.6119998639
 C        -1.1586443676        0.4857197924       -3.9221943808
 C        -2.2389554824        0.0549697659       -4.9338587880
 O         1.5399987440        1.9030194069       -2.8032971223
 O        -1.2181990084        0.3127631272       -2.7444184508
 C        -0.5507801974        2.9630427834       -4.5009721889
 C         0.2913547348        1.1399435234       -6.1442106513
 C        -3.0660850531       -1.0665035562       -4.3175064168
 C        -3.7810057332       -1.9997181935       -5.4319512075
 C        -5.2561293010       -2.3966332889       -4.9143453975
 C        -6.0191308454       -1.1552953495       -4.2914109007
 C        -6.5746964010       -0.2289553737       -5.4393459945
 C        -5.9286177354       -3.0074080045       -6.1615351454
 C        -5.0789105153       -3.4514842486       -3.8893435835
 O        -3.5056224990       -1.9841136731       -6.5871197864
 O        -6.1420892894       -1.0905656916       -3.1137354634
 C        -6.7286820387        1.1851750019       -4.8822706761
 C        -5.5976844886        2.1221546467       -5.4474069634
 C        -5.8325904573        3.6844050981       -5.3779776036
 C        -7.0351523348        3.9537199508       -6.2862184804
 C        -6.6000554428        4.2635661822       -7.8252142194
 O        -4.6554824629        1.6585266175       -6.0796718080
 O        -8.1889728643        3.8417547408       -5.9141050801
 C        -6.2642689688        4.1169457299       -3.9860791925
 C        -4.5215634767        4.4169334306       -5.7817117072
 H         3.6762994057       -9.0620282291        7.1965612667
 H         2.0959629229       -9.6090011363        6.3684335209
 H         3.3446980591       -8.9791012764        5.4172882234
 H         0.6704568556       -5.2111059707        5.8759303739
 H        -0.4254845926       -5.6586510878        7.0122195308
 H         0.0120983856       -7.8780607556        7.6061475220
 H         0.2728282052       -7.5121435970        9.3205250495
 H         1.0457603601       -8.7891612425        8.5311553483
 H         3.8175609800       -6.2387233625        8.5186344020
 H         2.7889501434       -6.7922174180        9.7747587655
 H         3.6048004560       -7.9494901935        8.8789149271
 H        -1.1416225826       -3.3322886075        6.7265292362
 H         0.0329314488       -3.3017963341        7.9088872886
 H         0.5211663115        1.2292490931        4.1845434310
 H         0.4180048152       -0.2113634368        3.3351547437
 H        -0.0130774382        0.2770070969        7.9802826188
 H         0.5720187470       -1.2789727169        8.3930847176
 H        -1.0763415501       -1.1886129435        7.7318445048
 H         2.6362130895       -0.6298424508        6.6854949689
 H         2.2627800591       -0.2322253568        5.0750833142
 H         1.8663859512        0.8768664504        6.3416848420
 H        -1.9767209755        1.7190153101        3.7009114030
 H        -2.1535193281        0.1053138090        3.1589775879
 H         0.5322781404        5.6806510039        1.0432727972
 H         1.3550135368        4.3729727677        2.1597669113
 H        -1.9178485174        2.6722016207       -0.5854804834
 H        -2.3990311597        4.1959341930        0.2844066597
 H        -3.1728082247        2.5706123919        0.7785744027
 H        -2.6858415010        3.6627089873        2.8736797418
 H        -1.0428455084        3.9189489617        3.5546499340
 H        -1.6878935584        5.0478714925        2.4158566019
 H         2.0930198293        4.3273545353       -0.7578386387
 H         2.5763633528        5.8544594663        0.1645956424
 H         6.1811226906        1.4277045337        1.2097754862
 H         4.3261242665        1.5610314577        1.6938967331
 H         4.8510490270        4.7176243576       -1.5571658628
 H         6.3669213904        5.0091718908       -0.5881411626
 H         4.8726177418        6.0398841361       -0.2868854191
 H         5.9100870170        5.2377229660        1.9281285013
 H         5.3435060389        3.6036087800        2.5681651463
 H         6.7452227843        3.6846225793        1.5273246604
 H         5.2800367238       -0.7349741278        1.1317504844
 H         5.5750115875       -0.1869641641       -0.5328829959
 H         3.8364867994        0.1211178450       -2.5344902932
 H         3.8464953597       -1.2563940536       -3.5823274910
 H         5.0429646629       -2.3734198157       -1.4082663813
 H         3.8267163255       -3.5936272932       -1.3180747800
 H         4.4370330019       -2.8095737359        0.1686567090
 H         1.4091715988       -2.9591545181       -0.4128136305
 H         2.3340155883       -2.7386066894        1.0375713553
 H         1.3401188841       -1.4519472264        0.6115376434
 H         3.0252697908        0.6232468306       -4.9752099506
 H         1.8177058587       -0.5300717781       -4.8632755770
 H        -2.8227957600        0.9363065966       -5.2220963973
 H        -1.7616572418       -0.2992456146       -5.8193486193
 H        -1.0835388703        2.8728739160       -3.5741823325
 H        -1.2835906077        3.1754641232       -5.2926546196
 H         0.1363082020        3.7611667593       -4.5497134601
 H        -0.5252918214        1.2957986152       -6.7421125895
 H         1.0927623309        1.7243902440       -6.4913262925
 H         0.5782561996        0.0669937407       -6.2741635206
 H        -3.8448044428       -0.6759447147       -3.6583306544
 H        -2.3267287290       -1.7597420737       -3.7447435493
 H        -5.7846296256       -0.1733899672       -6.2140691874
 H        -7.5611536882       -0.5097734404       -5.7702840023
 H        -6.2234561667       -2.2378587407       -6.8471621967
 H        -6.6971483332       -3.7639356362       -5.9550732609
 H        -5.1205748527       -3.4187515070       -6.7774309294
 H        -6.0028704679       -3.7314837295       -3.3418768832
 H        -4.7631512541       -4.3619396024       -4.2548657425
 H        -4.3606100733       -3.2790463868       -3.1435495019
 H        -7.6619944696        1.5718058269       -5.2186093563
 H        -6.6296849247        0.9937438971       -3.7994982871
 H        -6.3270886591        5.3032437271       -7.9455605536
 H        -5.7172804047        3.6264458302       -7.9094415288
 H        -7.4342327079        4.1248094942       -8.5578062354
 H        -5.9913959154        3.3053870049       -3.2659495427
 H        -7.3944744731        4.0850514850       -3.9825635014
 H        -5.8513937908        5.1002903652       -3.7148273752
 H        -4.5934117675        5.5329480838       -5.7941404497
 H        -3.8619787030        4.1004916010       -5.0128205242
 H        -4.2195324648        4.2396757106       -6.7989011552
 Na        0.4009833917        0.7217457995       -1.0125440062
