155

 C       -12.4491411723        3.7236988959       -3.7073194972
 C       -11.8545269537        4.2374664413       -5.0013065864
 C       -10.1707922254        4.0519380769       -5.1868701351
 C        -9.7826233211        2.9574333718       -4.1689663545
 C        -9.6596292966        1.5532284598       -4.6277830915
 C        -9.8847274661        3.6329492252       -6.6578774058
 C        -9.5499233494        5.4130952183       -4.9079563520
 O       -12.3590311291        4.7669676282       -5.8945980996
 O        -9.6061939402        3.3182208557       -3.0316091068
 C        -9.4601616399        0.3965008125       -3.5038715591
 C        -8.6455155799        0.8500837298       -2.2477293375
 C        -6.9599850349        0.8670972599       -2.4120992270
 C        -6.5717408810        0.2493794276       -0.9926595284
 C        -6.2230242628       -1.2669349185       -0.9584608311
 O        -9.2993033181        1.0112924818       -1.1697758814
 O        -6.3457141584        0.9823919295       -0.0765361929
 C        -6.2293412245        0.2856925086       -3.6238429641
 C        -6.3483483811        2.3968058307       -2.5051660309
 C        -6.3110073106       -1.9774147583        0.3545582682
 C        -5.9346485095       -1.1396258526        1.6835235430
 C        -6.9312832631       -0.4814649370        2.6364182348
 C        -6.4528267357        0.8993329897        3.1380272973
 C        -7.4452517546        2.1318391020        3.0749914786
 C        -8.4523977128       -0.3259719923        2.0878538190
 C        -6.9596147445       -1.3563700360        3.9316332469
 O        -4.7991240791       -1.2844976633        2.0528815924
 O        -5.2952042760        1.1281427088        3.3676147618
 C        -6.9745468156        3.3130551039        4.0608365155
 C        -5.5034111784        3.6988502890        4.0665877972
 C        -4.7561121387        4.2544943071        2.6639532804
 C        -3.5279773102        3.3296488447        2.3607887667
 C        -2.3338411717        3.3165585106        3.4020227656
 O        -4.9702982237        4.0269890631        5.1184792936
 O        -3.5783237822        2.5047723761        1.4723254666
 C        -5.7014660712        4.4140655790        1.3982605469
 C        -4.3808469950        5.7816113482        3.1383455801
 C        -0.9770836591        2.6771363797        2.8624974867
 C        -0.7759382749        1.3251659924        3.5143223141
 C         0.7089759706        0.9777125209        3.9932458415
 C         1.7374748049        0.7652812060        2.8440504612
 C         2.6114697495       -0.5597034156        2.7755992630
 C         1.2414737178        2.1051138200        5.0062175921
 C         0.5621682463       -0.4186756684        4.7817002451
 O        -1.6629254918        0.4889752849        3.6680902108
 O         1.9373113605        1.7251060996        2.1570477598
 C         3.9495939968       -0.2658365450        3.4533838433
 C         4.8930828577       -1.4563843144        3.2609561957
 C         6.3813445815       -1.0339720654        2.7818457155
 C         6.2108871156       -0.3023180867        1.5014424189
 C         6.5641517078       -0.8536285973        0.1849601296
 O         4.6008965874       -2.6057992054        3.1017604321
 O         5.5525769131        0.7370602077        1.4649918374
 C         7.0655236901        0.1133390738        3.9035502061
 C         7.2020460977       -2.2515931792        2.7780183911
 C         7.7431583887        0.0184773498       -0.4813063094
 C         8.8084589984       -0.9000776433       -1.0066767345
 C         9.2702566280       -1.2578945344       -2.5489231639
 C        10.1314229568       -2.6397893801       -2.6323808932
 C         9.3986531060       -4.1231120200       -2.9187873373
 C         8.1941180582       -1.3658604259       -3.6569233325
 C        10.1549138851        0.0040567872       -2.8956182018
 O         9.4291574306       -1.4941851956       -0.1918630765
 O        11.2709173023       -2.6243048625       -2.4586573352
 C        10.6749718078       -5.1441234330       -2.6728266751
 C        11.4609967655       -5.2622040841       -3.9781071292
 C        12.1390321867       -6.6050510135       -4.2799096307
 C        11.2040617112       -7.8459319261       -3.9712449943
 C        11.5202373006       -8.7406299463       -2.8602390644
 O        11.6745045814       -4.1871190361       -4.4394122424
 O        10.1467500012       -7.8609924740       -4.6208605156
 C        12.6613272360       -6.5702981272       -5.8750192399
 C        13.4724942009       -6.6427229377       -3.5544460782
 H       -12.1091219189        2.7691298042       -3.4384600522
 H       -12.4156306094        4.4900388078       -2.9231716442
 H       -13.4992731628        3.5372324870       -4.0364163351
 H       -10.5358156503        1.2704478527       -5.2924730816
 H        -8.8484772276        1.4645528867       -5.2891434783
 H        -9.1120102061        4.3810759967       -6.8805742999
 H       -10.8867350036        3.5077378930       -7.1577364617
 H        -9.4290696902        2.6626667593       -6.7613432410
 H        -9.4655891227        6.0978642310       -5.7922350257
 H       -10.1059412963        6.0781792617       -4.2244865435
 H        -8.6442974592        5.3142521011       -4.3211468305
 H       -10.4459729827        0.3647502841       -2.9439306971
 H        -9.0518513719       -0.5381216225       -3.9850352618
 H        -6.7656796438       -1.9600621367       -1.7034538481
 H        -5.1408108400       -1.2991535666       -1.1001166484
 H        -6.3532192318        1.0862940019       -4.3409903567
 H        -6.5348711363       -0.6780445721       -3.9659089586
 H        -5.1256670076        0.2005449956       -3.4397877519
 H        -5.3275947978        2.2200635330       -2.1002849572
 H        -6.3655639358        2.6690919738       -3.5549010088
 H        -6.8844262430        3.2805604050       -2.0932715910
 H        -5.5790826661       -2.8584445334        0.2502387029
 H        -7.2806340555       -2.5251828250        0.5275853681
 H        -7.5663791869        2.5606523099        2.0817925324
 H        -8.4335078836        1.7842811729        3.3822404605
 H        -8.7222636841        0.5702808239        1.4904927249
 H        -9.2497541581       -0.3013578037        2.9698805910
 H        -8.4692078456       -1.0976243750        1.4205453705
 H        -7.7768274569       -2.1124920945        3.9397726840
 H        -6.1796157729       -1.9952999170        4.0710249446
 H        -7.1368301631       -0.7966478786        4.8922660878
 H        -7.6295041828        4.0227649424        3.5917172055
 H        -7.2246821837        3.0748473395        5.0291214986
 H        -2.0558166232        4.3775028852        3.6167906151
 H        -2.5952047585        2.9316473312        4.4114171088
 H        -5.9208665034        3.3825933249        0.9795954819
 H        -5.1032450091        5.0540216376        0.6943856993
 H        -6.6017084561        4.8915991474        1.6328127662
 H        -3.7457308858        5.8084106488        4.0639965051
 H        -3.8468353300        6.4284137291        2.4404384952
 H        -5.2696837620        6.2667229230        3.3950773738
 H        -0.1626012496        3.3950279287        2.9941345149
 H        -1.0073049005        2.5142362645        1.8460776233
 H         2.0118573357       -1.4179240064        3.0381545634
 H         2.7936796842       -0.7602748840        1.7126514112
 H         0.5398549952        2.3420375315        5.7873355715
 H         1.2935243743        3.0123458390        4.3749082952
 H         2.1093098332        1.8366568257        5.5125148653
 H        -0.3105192363       -0.3803245501        5.4305161321
 H         0.4390786845       -1.1721685905        4.0575629930
 H         1.4662725850       -0.7179359776        5.2344717312
 H         4.3979356873        0.6433862616        3.0657316323
 H         3.8169777345       -0.1544865725        4.5214231400
 H         6.9236011383       -1.7730417441        0.4633118608
 H         5.7559646191       -0.9584515542       -0.5492716578
 H         6.7008889186        1.1186283321        3.7008046336
 H         8.0719018139        0.1366004216        3.5199486310
 H         6.8601156042       -0.2667723611        4.9314543587
 H         8.1680126686       -2.1809025205        2.2500878952
 H         7.4735233658       -2.6437879116        3.8017437947
 H         6.6072126380       -3.1557292562        2.4592208759
 H         8.0090275578        0.6803157456        0.3184285691
 H         7.4374270382        0.5357426482       -1.4540131177
 H         8.6493351842       -4.2172016594       -2.1643700948
 H         9.0636674120       -4.3183162855       -3.9361361708
 H         8.8073093959       -1.5485942041       -4.5401603682
 H         7.9075031873       -0.3786345769       -3.7518695925
 H         7.4367156662       -2.1303463043       -3.7846980455
 H        11.2497802774       -0.2317904205       -2.6940243238
 H        10.2756909222        0.2203385571       -3.9905074951
 H         9.7839738948        0.8742566314       -2.3600699507
 H        11.3549119274       -4.8112747718       -1.8731419809
 H        10.2326421619       -6.1663777372       -2.5037827234
 H        11.5809759297       -8.2338866277       -1.8110806039
 H        10.7446506916       -9.5625035021       -2.6339177463
 H        12.2717904155       -9.3209399378       -2.7936269122
 H        13.4748287322       -7.2049194358       -6.0388233437
 H        13.0198065198       -5.5725072820       -6.0160614471
 H        11.7679554776       -6.7552596919       -6.4826167555
 H        14.3510005476       -6.0398002965       -3.6158502904
 H        13.3132805080       -6.5520313158       -2.4472452769
 H        13.8891808115       -7.6175565794       -3.7538562601
 Na       -3.4077719337        0.2140357726        2.4619692006
