155

 C       -13.2374957894        4.9965311106       -4.0403371369
 C       -12.4798709038        3.7325814001       -4.6147556145
 C       -10.8425385354        3.9164759379       -4.8558639495
 C       -10.3107155019        2.8406704794       -3.7695931323
 C       -10.0659743482        1.4251338991       -4.2745081887
 C       -10.4117919981        3.5518921449       -6.3000860426
 C       -10.3791396370        5.3135375286       -4.4268219017
 O       -12.9566583914        2.7260376076       -4.8640486137
 O       -10.1888309985        3.1249133623       -2.5973852834
 C        -9.9275162011        0.5531469310       -2.9555233339
 C        -8.8969831133        0.9799914305       -1.8320438279
 C        -7.3145229827        1.1256584612       -2.1758702230
 C        -6.7200745096        0.8006229836       -0.7606914235
 C        -6.3536885388       -0.6619171286       -0.3387894321
 O        -9.2890437761        0.7962591049       -0.6895519839
 O        -6.7223894305        1.7177577797        0.0890742152
 C        -7.0511682775       -0.0660216462       -3.1460284594
 C        -7.0557795237        2.5523195742       -2.5627342096
 C        -7.1572434575       -1.2727371974        0.7976193389
 C        -6.6524318691       -0.8725272768        2.2755929202
 C        -7.4802935899        0.2784628375        3.0829008204
 C        -6.7129516553        1.6768598079        3.0670733382
 C        -7.4916052472        2.9843591166        3.0274405452
 C        -8.9453839822        0.3631615116        2.5731896218
 C        -7.4098614027       -0.0446013227        4.5862625306
 O        -5.6926693725       -1.5098082036        2.6854639243
 O        -5.4733170019        1.6616826844        3.0563519267
 C        -6.5328108129        4.2234465891        3.7512119946
 C        -4.9953914596        3.8779560984        3.7862114613
 C        -4.1615221998        4.2923898533        2.5025861829
 C        -3.1938438228        2.9716121797        2.3468719858
 C        -1.8405610172        3.1027393209        3.1066987775
 O        -4.3775248740        3.4364937777        4.7325899035
 O        -3.4909475787        1.9557184466        1.7163117360
 C        -5.1007765830        4.4362436866        1.2674501780
 C        -3.5673392793        5.6877244602        2.8533168687
 C        -0.6966561602        2.3501226262        2.3600030124
 C        -0.3740075643        1.0798492577        3.1464529208
 C         1.1571173756        0.8287050820        3.5721667992
 C         2.1122293137        0.6453334749        2.3129866045
 C         3.2261293502       -0.2795955021        2.3711120175
 C         1.7387074727        2.0381707532        4.3304147920
 C         1.1841905224       -0.3695589577        4.6906546861
 O        -1.2691588438        0.3638333564        3.6561645727
 O         1.8119963256        1.2092140552        1.2845298699
 C         4.4371224590        0.0362660796        3.3464815358
 C         5.3860390842       -1.2472005090        3.1345707185
 C         6.9318012210       -0.8681307663        2.7217098999
 C         6.9902698041        0.2770754571        1.5953523500
 C         7.2845870235       -0.2019226768        0.1871462193
 O         4.9372882051       -2.3325856733        3.4713308250
 O         6.8733828566        1.3980532394        1.9380402553
 C         7.7427425297       -0.1984457747        3.8689474011
 C         7.5069802474       -2.1548653171        2.1736935746
 C         8.9091810251       -0.1118923279       -0.1665834226
 C         9.3961592272       -1.4415713346       -0.8318112297
 C         9.8283859808       -1.4106283472       -2.2895485276
 C        10.5325717249       -2.8196227218       -2.5605329023
 C         9.5831809258       -4.1481212473       -2.7453796995
 C         8.5357384650       -1.1753584568       -3.0895191548
 C        10.9315569491       -0.3121271765       -2.5488385290
 O         9.3782948066       -2.4749428233       -0.2246968394
 O        11.6157512022       -2.9239302944       -2.9713534118
 C        10.3750104562       -5.4987063009       -2.9725120565
 C        10.7530443967       -5.7044207941       -4.5035485615
 C        11.8643650997       -6.8865121491       -5.0043683180
 C        11.0062395698       -8.1687920460       -4.7905946344
 C        11.1984217547       -9.0392178625       -3.5336941826
 O        10.0957917332       -5.1651605434       -5.3535991245
 O        10.1112150182       -8.5248918689       -5.4379335806
 C        12.2874563000       -6.6112617261       -6.5163301752
 C        13.2049273013       -6.6470997762       -4.0620462422
 H       -14.2296638418        4.9540891721       -4.3947416073
 H       -13.2264724693        4.9414884239       -3.0643384113
 H       -12.8599161285        5.8264407066       -4.4351991788
 H       -11.0807743062        0.9688967790       -4.6769229052
 H        -9.2581305168        1.0719820731       -4.7639304963
 H       -10.9559993246        3.9848817174       -7.1067460016
 H       -10.4888690900        2.4530569996       -6.4899449507
 H        -9.4233853929        3.9137816451       -6.4893819883
 H       -11.0585627467        6.1515439591       -4.8447342913
 H       -10.3986730261        5.4254029573       -3.3228747040
 H        -9.4021981502        5.6751188113       -4.7819889689
 H       -10.8421060215        0.3497685698       -2.3845415869
 H        -9.5345541237       -0.4534389792       -3.1648686269
 H        -6.2696550327       -1.4277614959       -1.1548664412
 H        -5.2827480390       -0.6611331529        0.0488956482
 H        -7.4515658016       -0.0583548478       -4.2085637294
 H        -7.4583280096       -0.9688394017       -2.7800091252
 H        -6.0072971796       -0.3449750065       -3.1024805503
 H        -6.0914918525        2.9896615173       -2.7191284300
 H        -7.3671111557        2.7175361871       -3.5771880407
 H        -7.4897971071        3.2455610812       -1.8082474881
 H        -7.1672234684       -2.3554445830        0.6099123497
 H        -8.1984888860       -0.9119783450        0.7828546279
 H        -7.5889580987        3.1199004891        1.9462737954
 H        -8.4645227203        2.8515612109        3.5023768037
 H        -9.0435863868        1.0144263876        1.7217051022
 H        -9.6171173592        0.8070500668        3.4471650433
 H        -9.3716126873       -0.5956774099        2.3895727148
 H        -8.2146510751        0.4598424297        5.1953285414
 H        -7.5258421384       -1.0625743170        4.6857791323
 H        -6.3865709153        0.1057967474        5.0559915773
 H        -6.8469233073        5.1655636684        3.3786545222
 H        -6.7438740075        4.2765617599        4.7283561096
 H        -1.6170199142        4.1877486251        3.4067845749
 H        -1.9831707256        2.6271750414        4.0681263324
 H        -5.7768892184        3.6331349961        0.9054565991
 H        -4.5080942040        4.5499501430        0.3543503317
 H        -5.5422033893        5.3547506358        1.4791428049
 H        -3.1658588582        5.5371032862        3.8876233138
 H        -2.7695996459        6.0695143866        2.2913702212
 H        -4.2852006427        6.4304885394        2.8064422753
 H         0.1803017175        2.9821598479        2.2487771986
 H        -0.9193171973        1.9994287651        1.3597176735
 H         2.8531483595       -1.1242212796        2.7528039565
 H         3.5925035674       -0.4130771753        1.3549686765
 H         1.2171464127        2.3379103478        5.2205900499
 H         1.7524766361        2.8854678666        3.6100890030
 H         2.8186047054        1.8221059369        4.3963309931
 H         1.0085652062        0.1244364788        5.6595131427
 H         0.3337096998       -1.0276272565        4.5235479885
 H         2.1233871836       -0.8548872271        4.9310217814
 H         4.8099353155        1.0546238720        3.0235170664
 H         4.1835339587        0.2278147864        4.3582417036
 H         6.7298185301       -1.0972988086        0.1975676312
 H         6.8156916033        0.4053377007       -0.6848247818
 H         8.5486384114       -0.9767734542        3.9730786073
 H         7.1176968305       -0.0449349684        4.7187210940
 H         8.0486978522        0.8054172572        3.4657064892
 H         8.5101867111       -1.9479600549        1.8010355570
 H         7.7252464944       -2.8989042356        3.0220208808
 H         7.0243288788       -2.8400478888        1.4394855591
 H         9.4069310713        0.2630937749        0.7553929475
 H         8.8876055800        0.7556303887       -0.8922997704
 H         8.7907891080       -4.2793282097       -1.9675187144
 H         9.0218115192       -4.1690908535       -3.6626707460
 H         8.8144194178       -1.3014720652       -4.1460388230
 H         8.2462830287       -0.2123916483       -2.8825930288
 H         7.6940841606       -1.8437293372       -2.8583766264
 H        11.7799641201       -0.4281926398       -1.8900066989
 H        11.1298843039        0.0952169209       -3.5845075275
 H        10.6328482206        0.6205640940       -2.0730668054
 H        11.3413179690       -5.4450552717       -2.3079782043
 H         9.6828524983       -6.3107551530       -2.7538961811
 H        11.1185772732       -8.5651726028       -2.4739368327
 H        10.6110641287       -9.9253007676       -3.8490983716
 H        12.1758625939       -9.5004126607       -3.3223864401
 H        12.9715766093       -7.3643509795       -6.8422776245
 H        12.6738092147       -5.5965027889       -6.4199553133
 H        11.4471351715       -6.6732580012       -7.2009432726
 H        13.8303157527       -5.7731082196       -4.0138937145
 H        12.9260247508       -6.8721522495       -2.9947926442
 H        14.0334814224       -7.3919802576       -4.0956036558
 Na       -3.5874300343        0.0972154339        2.8171904667
