155

 C       -13.6953173111        4.7968915952       -4.5721474210
 C       -12.5960936186        3.7549002629       -4.5670651803
 C       -11.0094392233        3.9244900000       -4.7181880418
 C       -10.3879507935        2.9277632106       -3.5743079833
 C       -10.2033711719        1.5232833513       -4.0040606001
 C       -10.6748993516        3.5503853319       -6.2339783163
 C       -10.4716989025        5.3815775144       -4.3068217985
 O       -12.8958093884        2.5524592909       -4.2766649516
 O       -10.3077726224        3.2849740400       -2.4308385616
 C       -10.1965454509        0.4010309035       -2.9287967011
 C        -9.1546863041        0.8435455082       -1.7406050831
 C        -7.5009272429        0.9117893531       -2.0151633995
 C        -6.6688835457        0.7646653880       -0.6013465956
 C        -6.1844843640       -0.6395538002       -0.3280681700
 O        -9.4398812499        0.7917314671       -0.5676717612
 O        -6.3357707356        1.6664976735        0.1432693045
 C        -6.9389372248        0.0695048640       -3.2554706784
 C        -7.2847924531        2.3611123192       -2.5403126926
 C        -7.2252243863       -1.1428155744        0.8397640637
 C        -6.6838578092       -0.6086783744        2.2270789814
 C        -7.5268711957        0.3987178024        3.1395355241
 C        -6.7185514598        1.7972577621        3.1128444474
 C        -7.3828443206        3.1879825816        3.0888784414
 C        -9.1211921271        0.4845238630        2.9729658283
 C        -7.1518728720       -0.0383007583        4.5385128611
 O        -5.6646437746       -1.0187268398        2.7617224277
 O        -5.5438022973        1.7422027595        3.2204916891
 C        -6.5696763267        4.0809940578        4.0443744879
 C        -4.9171579489        4.1426883655        3.8740954099
 C        -4.1928433546        4.3723555172        2.2948674444
 C        -3.1748678614        3.1259172013        2.1511450565
 C        -1.7794541757        3.2267780815        3.0213241424
 O        -4.1662737828        4.0202882892        4.8189793190
 O        -3.4233240978        2.1209410554        1.5163143160
 C        -4.9951398054        4.3277330706        0.9475755902
 C        -3.3335804116        5.6642764113        2.4802867418
 C        -0.7584716301        2.2695312768        2.3983684204
 C        -0.4346728660        1.0053149444        3.2732781349
 C         1.1194175176        0.7108245136        3.6252656006
 C         1.9895130806        0.5721764639        2.2534357645
 C         3.2951020167       -0.4835215434        2.1780874056
 C         1.6462214475        2.0757056300        4.2857212478
 C         1.1807908844       -0.5255565810        4.4623159169
 O        -1.3163853612        0.2110920069        3.5046231825
 O         1.6668621189        1.2369772097        1.2713080207
 C         4.3960603302       -0.0923083310        3.1223786174
 C         5.5603748709       -1.1305303270        3.0591878698
 C         7.1916007166       -0.7296625439        2.7649334375
 C         7.2106315931        0.2662054343        1.6321285679
 C         7.4791235086       -0.1318324822        0.1946405652
 O         5.4635540251       -2.2704140540        3.4099730586
 O         7.0623064887        1.4964985717        1.7676173795
 C         7.7142897664       -0.2994420676        4.1974564530
 C         7.8676773862       -2.1607559459        2.4077073277
 C         8.9273507612       -0.2550289647       -0.0791829492
 C         9.4066777386       -1.6527613731       -0.7011930367
 C         9.9900664123       -1.5119158926       -2.2816367906
 C        10.6773279058       -2.8811746519       -2.8103572759
 C         9.8143600064       -3.9989685916       -2.7293226788
 C         8.7938412117       -1.1249600875       -3.2587246909
 C        11.0615210718       -0.4774374535       -2.2924306530
 O         9.2178066365       -2.7033164458       -0.1335162545
 O        11.8939351685       -2.8597140513       -3.0954568889
 C        10.5394886186       -5.2340778763       -3.2878118047
 C        10.4288033035       -5.7450034261       -4.7317547159
 C        11.5285627858       -6.8653039746       -5.0085495793
 C        10.9352740550       -8.3015882831       -4.8486134512
 C        11.5635815266       -9.1770037774       -3.8040881692
 O         9.6421019411       -5.3675457716       -5.5506849616
 O        10.2777971115       -8.8381650440       -5.7959760602
 C        12.0124857636       -6.7308564294       -6.5026948178
 C        12.7146592635       -6.7359060232       -3.9481196274
 H       -14.4846135912        4.5611720686       -5.3768295812
 H       -14.2233104863        4.4927504618       -3.5508300971
 H       -13.3279467880        5.9230586418       -4.8938636564
 H       -10.9454953595        1.1084360729       -4.5563585177
 H        -9.2093717419        1.6572876340       -4.6459707352
 H       -10.3472077922        4.4048182800       -6.8370439865
 H       -11.4265040142        3.2346967157       -6.9719289669
 H        -9.8390243810        2.9122222711       -6.3335221249
 H       -11.0096999460        6.1527177413       -4.7051386109
 H       -10.2706467620        5.5641803450       -3.3155078496
 H        -9.4668304545        5.3473168782       -4.6875508441
 H       -11.2084914443        0.4141986726       -2.5440959381
 H        -9.9048684726       -0.6161005931       -3.0401044664
 H        -6.3733984145       -1.3630797293       -1.0849944978
 H        -5.1442473404       -0.5996171072       -0.0661152653
 H        -7.4396213222        0.4745976374       -4.1035229637
 H        -6.9597102899       -1.0528282501       -3.2951910912
 H        -5.8613317283        0.2074010893       -3.4569025905
 H        -6.2632800551        2.4892179681       -2.9542542428
 H        -7.8616686728        2.8117349056       -3.3923939336
 H        -7.1308392701        3.0085782504       -1.7775037389
 H        -7.1423648209       -2.1868105915        0.8803163340
 H        -8.3023063470       -0.7791473338        0.6017608309
 H        -7.3712261575        3.5606749677        2.0465560256
 H        -8.4096820101        3.1539421023        3.4756043052
 H        -9.6181444994        1.3476108056        2.5657532189
 H        -9.5015868537        0.4431214736        3.9805100172
 H        -9.3128418573       -0.4349296920        2.3288778235
 H        -7.8601260170        0.3027504387        5.2120786627
 H        -7.1249805846       -1.1931909573        4.6295194067
 H        -6.2060757099        0.3229877170        4.7906781399
 H        -6.8855650876        5.2049063507        4.0010366385
 H        -6.8896819542        3.7618939774        5.1570496573
 H        -1.4580013896        4.1961986503        3.1798765237
 H        -2.0938060210        2.8551469937        4.0419054238
 H        -5.3061810382        3.3021728707        0.7985482801
 H        -4.3468034450        4.4650197288        0.0612317809
 H        -5.8667183462        5.1025560528        0.9114027793
 H        -2.5699198027        5.6184527666        3.2195368014
 H        -2.8453997044        6.0481720294        1.5443818043
 H        -4.0927559449        6.5302912447        2.5465096328
 H         0.1221341682        2.8439065652        2.0569540278
 H        -1.2174723877        1.7206169352        1.4684656827
 H         3.0057393141       -1.5777070038        2.5242161995
 H         3.5965450563       -0.3240739878        1.1251668639
 H         0.7311224407        2.3365406723        4.8763939476
 H         1.7826649785        2.9346673813        3.6272836786
 H         2.4594847643        1.8827154652        5.0135032413
 H         1.1938279081       -0.3949057829        5.4881522774
 H         0.3195479902       -1.1012808476        4.2256141283
 H         2.0434015264       -1.1082022791        4.1808678972
 H         4.6826080981        0.9137833426        2.9597129093
 H         3.9783681527       -0.0233763421        4.1692270160
 H         6.8625685682       -0.9984162328       -0.2883650286
 H         7.1499886267        0.7321946348       -0.3081010328
 H         8.6426048355       -0.7783875604        4.3259168207
 H         6.9901708753       -0.7368222580        4.9116351201
 H         7.5883532835        0.7692085203        4.2426095915
 H         8.9155091527       -2.2182491429        2.0598815423
 H         7.7508100311       -2.8274209038        3.2094452088
 H         7.3351738700       -2.7203056943        1.6696432183
 H         9.3603821375       -0.2320372867        0.9425763502
 H         9.3516980620        0.4998837336       -0.6739443867
 H         9.4455302900       -4.1115262808       -1.6943719564
 H         8.9173606603       -3.8148942496       -3.3790093509
 H         8.9804576328       -0.9544340810       -4.3623678386
 H         8.2178192482       -0.2483657432       -2.7301006605
 H         8.1310772538       -2.0020688653       -3.2326868286
 H        11.7460597382       -0.4742161121       -1.5156884385
 H        11.4838793218       -0.4860321895       -3.2316474196
 H        10.7638883993        0.5584279243       -2.1525470849
 H        11.5111771300       -5.1084265163       -3.0065413638
 H        10.1683691816       -6.1504886758       -2.7780262571
 H        11.3049758819       -8.8340380195       -2.7655894461
 H        11.1865466249      -10.2496772012       -3.9335399847
 H        12.5512509377       -9.1999169838       -3.8283096608
 H        11.6864905908       -7.6720969324       -6.9891983719
 H        13.0685773608       -6.4990856639       -6.6799766987
 H        11.2947228902       -6.0292567302       -6.9038555112
 H        13.0828917816       -5.7266968253       -4.1091701451
 H        12.6878591406       -6.8854484433       -2.9195061150
 H        13.6733096946       -7.0495453233       -4.2432578653
 Na       -3.7886310368        0.0183824723        3.0544696346
