155

 C       -13.5848082873        2.3176155145       -5.4863492109
 C       -13.3719112267        2.9559765664       -4.1168012370
 C       -12.0670961785        4.0069620526       -3.9316182165
 C       -11.0311824407        3.2481737902       -3.1036586302
 C       -10.7690117958        1.8032457189       -3.4411037261
 C       -11.3206959517        4.3078505522       -5.2392262251
 C       -12.4424623817        5.3412806346       -3.2184497206
 O       -14.0985674810        2.6798663020       -3.2259154492
 O       -10.3125337236        3.9239517883       -2.2951542688
 C       -10.7126936448        0.8883124846       -2.2170700830
 C        -9.7298507120        1.2572544227       -1.0522007396
 C        -8.2421986250        0.8580291710       -1.4701304435
 C        -7.6670213650        0.3944916797       -0.0462133856
 C        -7.4933501318       -1.0983511644        0.3777047543
 O       -10.1853713440        1.5924889945       -0.0164513063
 O        -7.3383374966        1.2753115082        0.7230120402
 C        -8.1062142043       -0.2379968336       -2.5207530534
 C        -7.5279738466        2.1310350155       -1.8387421516
 C        -7.5445235979       -1.2506871750        1.8346136521
 C        -6.4874836902       -0.2318090134        2.4873932529
 C        -6.9669450462        0.7928457290        3.5644583007
 C        -5.8571988062        2.0390407623        3.6273790046
 C        -6.0137830476        3.2142653719        2.5709203566
 C        -8.4844763015        1.1843531645        3.4192016788
 C        -6.7505559957       -0.0715069862        4.8801135305
 O        -5.2459687492       -0.3684998544        2.2007432751
 O        -4.9033212849        1.8864587920        4.3162598874
 C        -5.6929675555        4.6018117010        2.9142507806
 C        -4.1150912418        4.9929081530        2.9899878215
 C        -3.0151642855        4.7966774830        1.6533530934
 C        -2.4129392492        3.4440263610        1.9017479723
 C        -1.2173516632        3.1764524240        2.8253909345
 O        -3.6320936417        5.6113455692        3.8999739911
 O        -2.9832858233        2.4460525327        1.3983946808
 C        -3.8599807653        4.8185155055        0.3904987780
 C        -2.1600418777        6.1228577206        1.6629342188
 C        -0.3075866119        2.1073910672        2.2690970673
 C        -0.3736867329        0.9409308151        3.2116853246
 C         1.0662795663        0.2461020521        3.6401339206
 C         1.8591352871        0.0251740754        2.2492999563
 C         3.0337075405       -0.8925422229        2.3320546847
 C         1.9472783936        1.2794046718        4.4818828085
 C         0.8146231042       -1.0303235533        4.4498345941
 O        -1.3447121235        0.3869611668        3.7320031431
 O         1.6215533859        0.6680786413        1.2553268301
 C         4.2181847553       -0.1442903389        2.7865951804
 C         5.5082737504       -0.9122149659        2.6065829012
 C         6.8805216574       -0.1369700990        3.1574915621
 C         7.9135351890       -0.1388273457        1.8852934904
 C         8.1655818429       -1.4407475796        1.0497712674
 O         5.5192551348       -2.0730612774        2.2111585920
 O         8.6269158929        0.8241558727        1.7487056862
 C         6.7182758829        1.2884303667        3.5460651735
 C         7.5426723463       -0.8849325409        4.4287886529
 C         9.0805871967       -1.0575940312       -0.0206258052
 C         9.3323428098       -1.9759799784       -1.2828518384
 C        10.5145025333       -1.5800088683       -2.3454985052
 C        11.2690010806       -2.9097643397       -2.6422445129
 C        10.5377583864       -3.9935825524       -3.6223870157
 C         9.8417420894       -0.9717313441       -3.5241421792
 C        11.5147418155       -0.5811596158       -1.7711093747
 O         8.4266222771       -2.7536835664       -1.5589854829
 O        12.3867418985       -3.1522536873       -2.3144412823
 C        11.3329297933       -4.9743138845       -4.5031338736
 C        10.5420297641       -6.2548957905       -4.7888921227
 C        10.9260704904       -7.1868953375       -5.9515844323
 C        10.4320672214       -8.6960141140       -5.7993276269
 C        10.7484439495       -9.3825055694       -4.5618465289
 O         9.5946832691       -6.6587250174       -4.0530678415
 O        10.0403136884       -9.3053978087       -6.7836665290
 C        10.3839537484       -6.6788444228       -7.3285983559
 C        12.5399514895       -7.3863301214       -6.0722578573
 H       -12.8622620554        1.6104517723       -5.5156432103
 H       -14.5035804631        1.8099590735       -5.6293946029
 H       -13.5555560263        3.0418094547       -6.2911628544
 H       -11.3761624678        1.2707081916       -4.2569823529
 H        -9.8648844056        1.7503134176       -4.0581599622
 H       -11.3471380484        3.3947778588       -5.8028665077
 H       -10.3451525523        4.7761467986       -5.0560153075
 H       -11.9050483156        5.0513596770       -5.9111856581
 H       -13.1887185509        5.8406265276       -3.9530917204
 H       -12.9333810475        5.0225190315       -2.2204088747
 H       -11.4976173476        5.8648530281       -3.0645204681
 H       -11.7064362483        0.8556484651       -1.7215502464
 H       -10.4268236674       -0.0535761938       -2.6191830675
 H        -8.2653682157       -1.7635217143       -0.0566923702
 H        -6.4700016074       -1.6080904078        0.1421015125
 H        -8.5684887190        0.0810969009       -3.4981454971
 H        -8.8005315217       -1.0339566253       -2.2760015764
 H        -7.1920164389       -0.7752654259       -2.6433074963
 H        -6.4272187994        2.0667383867       -1.9565894709
 H        -7.9337340609        2.3336428661       -2.8234659813
 H        -7.7117394776        3.1852163514       -1.3899189760
 H        -7.1734132033       -2.2625733616        2.1316010966
 H        -8.4726852587       -1.1817392810        2.2068290282
 H        -5.4554625704        2.9568114620        1.6862135677
 H        -6.9813906113        3.1537115734        2.1038556201
 H        -8.8593834662        1.6615131819        2.4431028203
 H        -8.8582672373        1.5540634821        4.3565782207
 H        -9.0627113997        0.2742342066        3.5229270609
 H        -7.7394381085       -0.6803428400        5.0135959470
 H        -5.9898452353       -0.8115316952        4.7038078478
 H        -6.4448928354        0.6801469133        5.6412176725
 H        -6.2576242615        5.3374509315        2.3514264536
 H        -5.9716968612        4.6562949771        3.9231825117
 H        -0.8139600964        4.1488162337        3.0673778153
 H        -1.6656299633        2.7083310804        3.7117978706
 H        -4.0400702601        3.8565242111       -0.0734024087
 H        -3.3289607452        5.2934502154       -0.3968876865
 H        -4.7586360290        5.3107173572        0.4500153792
 H        -1.4653747577        6.1026873720        2.5669183602
 H        -1.5832666862        6.0180948891        0.7553945377
 H        -2.7563183176        7.0207003183        1.7386746114
 H         0.6995031644        2.5333696659        1.9847791447
 H        -0.6665044889        1.7683578101        1.3013311108
 H         2.7299334436       -1.7907385845        2.8978504228
 H         3.2298390179       -1.3419332775        1.3439938031
 H         1.4170733123        1.4585332585        5.3938459857
 H         2.0833033821        2.2323724010        4.0034526581
 H         2.9686623201        0.9754044300        4.4677936012
 H         0.3922750394       -0.9105037205        5.5045282113
 H         0.1263308266       -1.7117303029        3.8931297850
 H         1.7051333398       -1.6431402318        4.7098478817
 H         4.1360378076        0.7773763293        2.2289614341
 H         4.1255278094       -0.0021807576        3.8732010258
 H         8.6723112099       -2.1234748318        1.7071990135
 H         7.2220896941       -1.8922859324        0.4740207190
 H         6.5712219361        1.3568260762        4.6489133875
 H         5.8068325785        1.6724119491        3.0922609468
 H         7.4587055957        1.8716768370        3.0143335080
 H         8.3119274016       -0.3444732582        4.9128024553
 H         6.7042857004       -0.9545542013        5.1280538580
 H         7.8379841015       -1.8869538154        4.2090123616
 H        10.0128901251       -0.7070232644        0.5215311590
 H         8.7085645220       -0.0495839380       -0.3927426499
 H         9.7712223356       -4.5566542134       -3.1012032907
 H         9.9507542318       -3.4845526557       -4.4280863724
 H        10.5294188766       -0.4820300177       -4.0857952103
 H         9.0165641845       -0.4384808999       -3.2860663885
 H         9.3028332498       -1.7688699128       -4.0627226738
 H        11.9449591091       -0.9320477475       -0.8196174204
 H        12.3897549730       -0.4296194090       -2.5452989047
 H        11.0972050831        0.4145575157       -1.8234751915
 H        11.8902138355       -4.4760307794       -5.3424244172
 H        12.1082260944       -5.3158540640       -3.8891018940
 H        11.1292907077       -8.6161792248       -3.9813558408
 H         9.8592691656       -9.7835826435       -4.0086074591
 H        11.5494776524      -10.0213594382       -4.7708953272
 H        11.1296848700       -6.7392811092       -8.1346094438
 H        10.1302519600       -5.6223121828       -7.1123451558
 H         9.4920494377       -7.2571555273       -7.5205565688
 H        13.1631783455       -6.5046265495       -6.2251760325
 H        13.0768364417       -7.8278944012       -5.1422990511
 H        12.8444859591       -7.9902452393       -6.9651660871
 Na       -3.2130785144        0.5396086908        2.5071125658
