155

 C       -15.1536390012        2.4437811029       -5.2051362183
 C       -14.1426817518        2.6888444255       -4.0833792701
 C       -13.1770604322        3.8509679651       -3.8336125458
 C       -11.7417695967        3.3971010516       -3.2869199519
 C       -11.2895931292        1.9717516133       -3.1629565482
 C       -12.8663796241        4.5866782387       -5.1719660205
 C       -13.5671660012        5.0440582658       -2.8295917155
 O       -14.0183428679        1.8669627339       -3.2236396097
 O       -10.9574750570        4.3739711268       -3.0573246852
 C       -11.4453353235        1.3988699062       -1.7302631227
 C       -10.1970884537        1.1895597828       -0.6297108142
 C        -8.8174418577        0.6387454433       -0.8990011341
 C        -8.0483354763        0.6267548795        0.5894878557
 C        -8.3511355292       -0.5278285398        1.5236151491
 O       -10.4102158715        1.5445749424        0.5431830156
 O        -7.1888757195        1.4234884775        0.8189358428
 C        -8.9590402595       -0.7953927545       -1.5909492235
 C        -7.9988344873        1.4805437549       -1.8397710272
 C        -7.6346554755       -0.4616948729        2.7883308101
 C        -6.2755271786        0.2905093226        2.9111652063
 C        -6.1791349935        1.6301980495        3.8858884189
 C        -5.4857875589        2.7207551457        3.0640315915
 C        -6.0440753426        3.6967079501        2.1288101622
 C        -7.4114875930        2.0988252977        4.6149065554
 C        -5.1990655014        1.2354730347        5.0937462080
 O        -5.2626458802       -0.0817101072        2.3938398383
 O        -4.2595850502        2.8303229561        3.2368375894
 C        -5.4320957621        5.2418884381        2.3409314713
 C        -3.9251212318        5.1926992142        2.7766470009
 C        -2.7995406139        4.7980001436        1.7560166194
 C        -2.4089145880        3.2543286642        1.8613032677
 C        -1.4510625768        2.8646519957        2.9894505535
 O        -3.6012842408        5.4589074276        3.9390547173
 O        -2.9652044377        2.4486940628        1.1494865588
 C        -3.1749215243        5.0439915967        0.3306096081
 C        -1.4279154675        5.6331170602        1.9690420938
 C        -0.2839864902        1.9135650339        2.3376938572
 C        -0.1063958328        0.5991686897        3.0880739514
 C         1.1481858787        0.1655298045        3.7528996918
 C         2.2218774484       -0.4028826112        2.7567457613
 C         3.6585014423       -0.5781797034        3.2792812228
 C         1.8544724183        1.2602667868        4.6169669279
 C         0.6919563116       -1.0574664161        4.6365852772
 O        -1.1243212812       -0.1001583869        3.2472235745
 O         1.9075896302       -0.6262347811        1.6344831594
 C         4.6638014553        0.0456299436        2.1830311344
 C         6.0962554787       -0.7511588758        2.1583232107
 C         7.3530074045       -0.1711680647        2.7693637189
 C         8.5399375399       -0.4006459287        1.7587489713
 C         8.6351377317       -1.7135859152        0.9197384962
 O         6.1435885852       -1.8221589191        1.6243734521
 O         9.5224687057        0.2772316195        1.7073778335
 C         7.2103698030        1.2572058748        3.1489170294
 C         7.6083707368       -1.0062078096        4.1359178089
 C         9.8942514714       -1.7481901192       -0.0165263444
 C         9.6663760698       -1.8991689606       -1.5695126923
 C        10.8368738713       -1.7547240725       -2.5709158075
 C        11.2943574365       -3.3765319423       -3.0238520217
 C        10.5136474411       -4.1650708994       -3.9906147517
 C        10.3448453519       -0.9767583625       -3.9434164132
 C        11.9214076656       -0.9112996371       -1.9050731458
 O         8.5858736336       -2.3349892028       -1.9652689467
 O        12.2317185120       -3.7599513906       -2.4159957079
 C        11.4012866458       -5.4438948789       -4.1638593115
 C        10.6272654134       -6.6892867441       -4.7351556562
 C        10.6622229262       -7.1544123648       -6.2388069591
 C         9.7512294491       -8.7689532225       -6.1787229806
 C        10.6177926179      -10.0228095172       -5.6486012586
 O         9.9261593662       -7.3328984389       -3.8798926715
 O         8.6870373470       -8.8286822914       -6.7576411593
 C         9.8149535371       -6.0785418506       -6.9248193778
 C        12.0038611391       -7.2196498588       -6.9162649132
 H       -14.6721866517        1.9597003634       -6.2066914942
 H       -16.0103362925        1.8082431722       -4.7045118007
 H       -15.4612526551        3.4786744013       -5.4939229584
 H       -12.0062909652        1.6038740763       -3.8742488535
 H       -10.2425554662        2.0044875464       -3.4042388384
 H       -12.1795153174        3.9897605144       -5.7207104943
 H       -12.5412498382        5.5545602985       -4.8525081528
 H       -13.8728780497        4.7109983442       -5.6556920912
 H       -14.6063748826        5.4434113105       -3.1450078854
 H       -13.7059431925        4.5660590436       -1.8075112891
 H       -12.7790808976        5.7287746425       -3.0707931077
 H       -12.1993511816        1.9353798428       -1.2341975923
 H       -11.9821115475        0.5588026701       -1.8776740917
 H        -9.4479473890       -0.7750581816        1.6277271857
 H        -7.8922225505       -1.3804017584        0.8956730471
 H        -9.6740478823       -0.8799739670       -2.4626645074
 H        -9.4854530538       -1.2752448602       -0.8123545699
 H        -7.9892355144       -1.2570566344       -1.8086455838
 H        -6.9078173292        1.3732185776       -1.7298214097
 H        -8.0206534394        1.1306739084       -2.8312025890
 H        -8.2454867517        2.6313809750       -1.8884110114
 H        -7.4791105865       -1.5391485259        3.3325690420
 H        -8.2584696185        0.0867753203        3.4559822378
 H        -5.5949187187        3.4099522584        1.2256122333
 H        -7.1081392143        3.6339129317        2.2048841665
 H        -8.0398450961        2.6094182181        3.8436402649
 H        -7.1999492077        3.0034662363        5.2885958996
 H        -7.8843501279        1.2851360249        5.0999200044
 H        -4.5262752372        0.3241111952        4.7674815171
 H        -4.5886939172        2.0646411194        5.3449612380
 H        -5.8032217051        1.1404676285        5.9850861213
 H        -5.4984133521        5.9301359847        1.3924455500
 H        -5.9540626314        5.7791649624        3.1386846211
 H        -0.9292142672        3.5931918221        3.5048778723
 H        -1.8734400431        2.3215735176        3.8593076173
 H        -2.3878536221        4.8944570531       -0.4049415544
 H        -3.6478112178        5.9729207452        0.2431547298
 H        -3.8660416289        4.3156443375        0.0124640539
 H        -1.6344357475        6.5393746092        1.3420645596
 H        -1.4415014430        5.9093148065        2.9948836950
 H        -0.5242213610        5.1256144153        1.6728900405
 H         0.6755270015        2.4712007309        2.3959705665
 H        -0.6754088019        1.7714625788        1.2322151441
 H         3.9485570821       -0.2450218817        4.3021267957
 H         3.7383981332       -1.7592136726        3.1257277112
 H         1.2762964977        2.2097531255        4.8150929735
 H         2.7288817457        1.4573993573        4.1052108757
 H         1.9422339566        0.9476308968        5.6741677002
 H         0.0023309393       -0.6559045942        5.3975288174
 H         0.3979102551       -1.9602325060        4.0990254792
 H         1.5584060990       -1.3641965630        5.2031983284
 H         4.3455594118       -0.1884936704        1.1923472695
 H         4.7442986499        1.1360469058        2.1886703990
 H         8.6400850836       -2.5633153915        1.5971340100
 H         7.7167651377       -1.8486577938        0.3875599925
 H         6.3315032910        1.3423063614        3.8882167216
 H         7.1193571667        2.0210379108        2.3661844533
 H         7.9990898289        1.5496620056        3.9293569916
 H         8.5226569474       -0.5671359674        4.5359584490
 H         6.8444960129       -0.8310297167        4.8632249440
 H         7.7189955112       -2.0708041067        3.9849738627
 H        10.4344684977       -2.7049720605        0.2749836626
 H        10.5765187348       -0.8800711362        0.2571382510
 H         9.5605861926       -4.2435871699       -3.4514170125
 H        10.4681746969       -3.6442889706       -4.9587505412
 H        10.9936501319       -1.1217798723       -4.7485869448
 H        10.1403729342        0.0181156202       -3.7804651251
 H         9.3897223621       -1.4925692058       -4.2738337179
 H        12.1370559297       -1.0476234205       -0.8700400751
 H        12.8055642118       -1.2040093459       -2.5720673828
 H        11.5559404737        0.1559901357       -1.9580851360
 H        12.2438644559       -5.2004032835       -4.7200529577
 H        11.6165663194       -5.7172625345       -3.1924896708
 H        10.9909875880      -10.4006094119       -6.7572579873
 H        11.4320775574       -9.7100148166       -4.9279075008
 H        10.0417928038      -10.5501403425       -4.9524704714
 H        10.2077128158       -5.6664220190       -7.8837630459
 H         9.7887348508       -5.2005538433       -6.2620658022
 H         8.8478493854       -6.4626639542       -7.0635186279
 H        12.4720980907       -6.2942879829       -7.3501190134
 H        12.6497932548       -7.5304023503       -6.1010599430
 H        12.1826255140       -8.0976447110       -7.5247438402
 Na       -3.0803561288        0.4800432386        2.1024778697
