155

 C       -15.7264773570        2.7303748048       -4.4730149998
 C       -14.4218954119        2.4434023041       -3.7130977899
 C       -13.3610476565        3.6558759925       -3.7058565176
 C       -11.9224069921        3.2876629156       -3.1311536977
 C       -11.4740348790        1.7140769550       -2.9957412113
 C       -12.9680709113        4.3428676481       -5.0550772038
 C       -13.9720625139        4.5013933714       -2.5476801543
 O       -14.2762111759        1.3378554851       -3.2804451271
 O       -11.0435107001        4.1389699350       -2.9600384631
 C       -11.5658749375        1.3279708013       -1.5331109180
 C       -10.4368967044        1.5960806419       -0.5472286290
 C        -8.9559661631        0.8244996565       -0.6474879647
 C        -8.2693130943        0.8346557583        0.7648171967
 C        -7.8820992217       -0.4528786423        1.4604233752
 O       -10.5646875905        2.3963330725        0.3094693767
 O        -7.8078247140        1.8399316679        1.1992442208
 C        -9.2819090442       -0.7366967191       -1.0908481403
 C        -8.0484071240        1.5039887359       -1.6018187889
 C        -7.6897657620       -0.2107527215        2.9374228263
 C        -6.3743903099        0.5971437090        3.0142447074
 C        -6.2170744898        1.7787410008        4.1182516115
 C        -5.2336748605        2.7869227877        3.3710619889
 C        -5.7209555251        3.9508988247        2.4715109827
 C        -7.6689771555        2.4166120440        4.3706215299
 C        -5.7445088537        1.0300193933        5.3748749290
 O        -5.5181457256        0.1658781489        2.2941089430
 O        -4.0807423034        2.4190833439        3.3467863904
 C        -4.7865057941        5.2346001491        2.4839446678
 C        -3.3000451555        5.0286267297        2.6276289625
 C        -2.2641871747        4.8193075559        1.3372185180
 C        -1.8196065755        3.3440892309        1.4721417398
 C        -0.9489431557        2.8946091190        2.5655275739
 O        -2.8202055232        4.9627000325        3.7318441635
 O        -2.3398975121        2.5309761518        0.7341560573
 C        -2.9959277814        5.0849882415       -0.0237076710
 C        -1.1001776034        5.7651311273        1.4938807031
 C        -0.1317861465        1.6407145892        2.0949380784
 C        -0.1392501753        0.4709715736        3.1746060171
 C         1.1912965377        0.1222744950        3.9927624266
 C         2.3527296504        0.0170017651        2.7770587639
 C         3.8376217540        0.0613828918        3.0866374086
 C         1.4783825874        1.3668216010        4.9743270666
 C         1.2372098001       -1.1968563506        4.7289340973
 O        -1.1133112761       -0.3131821006        3.1688009026
 O         1.8409487279       -0.0885462141        1.6680307587
 C         4.7105402868        0.0407666186        1.7917289246
 C         5.9642700135       -1.0100443202        2.0323218809
 C         7.3204797773       -0.4694232900        2.5377310192
 C         8.5657864113       -0.6175359493        1.3991421959
 C         8.9205080830       -1.9515074341        0.6246342047
 O         5.7908718340       -2.2043957726        1.9138079632
 O         9.3922595443        0.2864950061        1.3282018889
 C         7.2834589357        1.0484579325        3.1442157343
 C         7.7010405687       -1.3787302982        3.6861812019
 C        10.1327219385       -1.8850800053       -0.1528449937
 C         9.8037008254       -1.8834436227       -1.6579080081
 C        10.9889818464       -1.9952033369       -2.6909229844
 C        11.4333835817       -3.6011267489       -2.5896631515
 C        10.5590607600       -4.8024322197       -3.0993079607
 C        10.4414168392       -1.7987555982       -4.0995786801
 C        12.1023354884       -1.0032038325       -2.3012325698
 O         8.6582885052       -1.6972369362       -2.0766220609
 O        12.5494595398       -3.8150589174       -2.3342695902
 C        11.4736938405       -5.6996268886       -4.0594157898
 C        10.4614229315       -6.6919753623       -4.7532394450
 C        10.3481938245       -7.0163999611       -6.2787485015
 C         9.5484869440       -8.4828701305       -6.3028695543
 C        10.3309319940       -9.8640748004       -6.4486945690
 O         9.6026080190       -7.1021581947       -3.9481572815
 O         8.3600096129       -8.4692802153       -6.2436007621
 C         9.5505672853       -5.9900654173       -7.0965589213
 C        11.9303405696       -6.9744070088       -6.8207876948
 H       -15.5614479317        2.4183202351       -5.5363669193
 H       -16.5406453432        2.3702261568       -3.8580769804
 H       -15.9537467437        3.8417928134       -4.5444577255
 H       -11.9745161645        0.9545019587       -3.6804636675
 H       -10.3958297680        1.8177972784       -3.2516134553
 H       -13.2547870424        3.6007867193       -5.8556567587
 H       -11.9302851349        4.5772317780       -4.9321863500
 H       -13.3943476011        5.4327350388       -5.2481785350
 H       -15.0175909860        4.8293422139       -2.7005732607
 H       -13.8541435346        3.8055935561       -1.6771078537
 H       -13.2794119147        5.3285091857       -2.4413943477
 H       -12.4010138235        1.9399920455       -1.1411097054
 H       -12.0170333626        0.3748626456       -1.5073481044
 H        -8.6509962773       -1.2214339102        1.3046127016
 H        -6.9309962162       -0.7159815897        0.8999606455
 H        -9.9251366784       -0.7736595795       -2.0431561759
 H        -9.8612610948       -1.1519438161       -0.2605398776
 H        -8.3130611815       -1.2318609189       -1.2406543589
 H        -7.1672871605        0.7638525021       -1.7923909241
 H        -8.6487721060        1.7532499071       -2.5233140060
 H        -7.5864212043        2.5119153001       -1.3554691017
 H        -7.7382630291       -1.2023814466        3.5877433705
 H        -8.5520954982        0.3414449904        3.2492139536
 H        -5.7897672474        3.5192364975        1.4979639967
 H        -6.6770774582        4.3187291308        2.8168883516
 H        -8.3074541732        2.1524221006        3.4365286023
 H        -7.4464815501        3.4599304661        4.4812971224
 H        -8.2182389271        2.2564521962        5.2501675230
 H        -4.6960721299        0.6199270348        5.3199902854
 H        -5.8265274970        1.7708387538        6.2134682029
 H        -6.4153907037        0.1688896938        5.6051371339
 H        -4.9457202593        5.7717318334        1.5285914967
 H        -5.0551615549        5.8978282347        3.2817514233
 H        -0.2766305538        3.4911795820        3.0580317497
 H        -1.5907432973        2.5116332541        3.3873605155
 H        -2.4974526456        6.0280261540       -0.4714986393
 H        -4.1024913123        5.2726135758       -0.0718921054
 H        -2.7104316192        4.2601760275       -0.6703385678
 H        -1.4773081706        6.8139410418        1.7296021791
 H        -0.4042681393        5.3711588860        2.2410252566
 H        -0.7072626386        5.9073355146        0.5194769481
 H         0.9692234550        1.9124296008        1.7745290129
 H        -0.7380025103        1.1686714750        1.2673807923
 H         3.8160350255        1.0961628766        3.5197694525
 H         4.0204163158       -0.6117864946        4.0051928783
 H         0.7115219995        1.4684219943        5.8142654471
 H         1.3684477954        2.2903950928        4.4062085611
 H         2.5212083519        1.3665882888        5.3354723140
 H         0.5659698685       -1.1856188360        5.5575393953
 H         0.9441313963       -1.9407844148        4.0624534810
 H         2.1997546914       -1.4055909858        5.0771279542
 H         4.0659825599       -0.1164696954        0.9492005705
 H         5.1400064835        1.0755404035        1.7603579293
 H         8.7678521154       -2.7245282854        1.2993572777
 H         8.1505906590       -2.2134841523       -0.2262482263
 H         6.9188498889        1.0422316668        4.1794897893
 H         6.7621686506        1.8644381225        2.5693958055
 H         8.2610007311        1.5395911008        3.1696937026
 H         8.7774727264       -1.2001726194        3.8678296329
 H         7.2241333177       -1.0319104363        4.6285664563
 H         7.5132923931       -2.4459468388        3.3871454592
 H        10.7923740611       -2.7581680474        0.0831559676
 H        10.6649726190       -0.9037635597        0.0054011763
 H        10.2034349688       -5.4913366341       -2.3336694819
 H         9.7784968855       -4.3433354806       -3.7534252830
 H        10.8926471610       -2.3601277029       -4.8679031286
 H        10.2693866485       -0.7942215238       -4.4105789432
 H         9.3863860377       -2.1161692595       -3.8907439748
 H        12.9514241616       -1.4054228486       -1.7819708202
 H        12.4103195815       -0.6572230040       -3.3745861435
 H        11.6761922082       -0.1121446859       -1.9184985548
 H        12.1264101950       -5.1936466350       -4.7653642753
 H        12.0526382985       -6.3526094078       -3.5243669814
 H        10.9839148029       -9.8549160821       -7.4019502194
 H        10.8316625710      -10.1638500537       -5.5450936572
 H         9.3091806808      -10.4722445367       -6.4983855341
 H         9.1470416578       -6.3595184273       -8.0506431760
 H        10.2846569445       -5.1997782167       -7.3576790463
 H         8.7384352442       -5.6004957236       -6.5610598689
 H        12.3529485209       -5.9523367223       -6.7839913751
 H        12.6564932388       -7.6727351049       -6.3189863658
 H        11.8422865900       -7.2186825849       -7.8880444763
 Na       -3.2714837791        0.7883105091        2.1020042453
