155

 C       -16.4036870727        2.4424570311       -3.3037819878
 C       -14.9338403016        2.2710092741       -2.9178377336
 C       -13.7873879485        3.3486126765       -3.1240924792
 C       -12.3975883145        2.6472656544       -2.9959859263
 C       -12.1220667511        1.1782684094       -2.7128878019
 C       -13.8786801297        3.9112002733       -4.5755188661
 C       -13.6825952804        4.5234459558       -2.1385436083
 O       -14.6899811533        1.2073182950       -2.3775453027
 O       -11.3908670789        3.3233852548       -3.1654368781
 C       -11.8322484915        1.1730227916       -1.1740229343
 C       -10.4818106359        1.6784354600       -0.3660246377
 C        -9.0145520901        1.1684455133       -0.5736561499
 C        -8.2660611939        1.2576472097        0.8459112952
 C        -8.7962573729        0.4792453769        2.0844141982
 O       -10.7134201321        2.4265396353        0.5914333494
 O        -7.2921509877        1.9773932478        0.9861058232
 C        -8.9890605997       -0.3726881788       -1.0054878455
 C        -8.3485498159        2.0697769624       -1.6652462571
 C        -7.6236204951        0.0619007428        3.0320556969
 C        -6.3873747834        0.9488325106        2.9193282296
 C        -6.2490237421        2.1506934169        4.0310173853
 C        -4.9215581238        2.9684764733        3.6710649486
 C        -4.9365054667        4.2739009510        2.7473147059
 C        -7.5148169474        2.8525305627        4.1562558750
 C        -5.8703073477        1.3052089575        5.2759151814
 O        -5.3892386222        0.5624300105        2.2905185359
 O        -3.8003142918        2.6571824646        3.9637457205
 C        -3.9799299245        5.3884705212        3.1352772890
 C        -2.5687333498        5.3759303322        2.4517995339
 C        -2.2102934203        4.8935020449        0.9979833165
 C        -1.8031302954        3.4444778809        1.3410500487
 C        -0.3254760240        3.2088633048        1.8707851757
 O        -1.6239127368        5.7438936759        3.0921308361
 O        -2.6185741972        2.5566367929        1.1439801950
 C        -3.3151529293        4.8846902258       -0.1310743455
 C        -1.1486423668        5.8387271100        0.5332199880
 C         0.2089675740        1.7215737953        1.6664985046
 C         0.2170363667        0.6820375928        2.7824986907
 C         1.4904475216        0.0634794856        3.2504768896
 C         2.6009421383       -0.2423767826        2.0854601694
 C         3.9633168360       -0.6046414824        2.6898693132
 C         2.1967004774        1.0608305326        4.3102071892
 C         1.1768288227       -1.3155443965        3.9436806597
 O        -0.8166782487        0.3831085087        3.3749951885
 O         2.3239625561       -0.0892239021        0.9177526529
 C         5.1395613557       -0.7462962917        1.5890084823
 C         6.2912382897       -1.4955991123        2.1611008492
 C         7.7454149899       -0.9005027142        2.4165278746
 C         8.3692656037       -0.8368418779        0.8969687042
 C         8.5871158732       -2.2838540376        0.2367156740
 O         6.0279448935       -2.6807803275        2.4181133731
 O         8.6124598828        0.1373450998        0.2969209808
 C         7.6926002174        0.4423847539        3.1583739752
 C         8.6299456221       -1.8841129837        3.2719687215
 C         9.9559493661       -2.2623763956       -0.3562981742
 C         9.8206584383       -2.1796308725       -1.9337608249
 C        11.0998109687       -2.2631616744       -2.7485555114
 C        11.5429566539       -3.7277070026       -2.2704110436
 C        10.4937113407       -4.8476179034       -2.8053356148
 C        10.7757760424       -2.0334942420       -4.2436836802
 C        12.1321481279       -1.1512647485       -2.1705979375
 O         8.7477962646       -2.0138199131       -2.4535846686
 O        12.4414723812       -3.9306350544       -1.4334203409
 C        10.8877682856       -5.3190893351       -4.1488829157
 C        10.0873053019       -6.5908522299       -4.6167558067
 C         9.9314739756       -6.7840044943       -6.2550235547
 C         9.0198590695       -8.1307114914       -6.4734478743
 C         9.5083639860       -9.5170325524       -6.3330771258
 O         9.4861629342       -7.3920753987       -3.9256617316
 O         7.8257692299       -7.8669590215       -6.3973533040
 C         9.0979117994       -5.6078951204       -6.6528092872
 C        11.2814650389       -6.8402676444       -6.9232246096
 H       -16.7994888533        3.4658685230       -3.1611514729
 H       -16.5713693772        2.3641532388       -4.3327885905
 H       -16.8676518667        1.7244743631       -2.8061061182
 H       -12.7887491944        0.2570077486       -2.8561284768
 H       -11.2564367863        0.8184984197       -3.3393773466
 H       -14.3187045047        3.2331278115       -5.3622894650
 H       -12.8180016797        3.9690109964       -4.9894709904
 H       -14.3172245253        4.8786001858       -4.7281508145
 H       -14.5416105807        5.1180157510       -2.3478519913
 H       -13.6327110452        4.2405685444       -1.1182662153
 H       -12.7405855281        5.0701572061       -2.4708757329
 H       -12.6341854227        1.9448164356       -0.8442582921
 H       -12.0225073189        0.1526061960       -0.6822303911
 H        -9.5226452703        1.0171813715        2.5865272126
 H        -9.2703278426       -0.3580626237        1.5897847488
 H        -9.1380965760       -0.2929002632       -2.0480114373
 H        -9.7759943203       -0.9417925154       -0.4159363267
 H        -7.9607912508       -0.6881539213       -0.8366598862
 H        -7.2805800754        1.8104933886       -1.7000541894
 H        -8.7473660804        2.0353531622       -2.6954560061
 H        -8.4171463164        3.0209156564       -1.2126014173
 H        -7.2544481092       -0.9185525959        2.8965705126
 H        -8.0572393512        0.2486102797        4.0755717887
 H        -4.8880434400        3.8388882149        1.7138286329
 H        -5.9904265657        4.6394661651        2.6594785837
 H        -7.9169908969        3.1408864001        3.1895193031
 H        -7.2796892868        3.8016325570        4.6414460004
 H        -8.2459283245        2.1932966517        4.7045577106
 H        -6.2235750021        0.3234020304        5.2473460687
 H        -4.7571511087        1.2383963174        5.5346778235
 H        -6.2243609129        1.7451378389        6.1865145981
 H        -4.3058112910        6.3371584214        2.9140320603
 H        -3.8838742923        5.3581934337        4.2180232562
 H         0.3238320629        3.6493398971        1.1226033143
 H        -0.0740834629        3.6052214916        2.8772471946
 H        -3.4447750004        5.9483980957       -0.3399429974
 H        -4.2876770675        4.4019268024        0.1247738194
 H        -2.9018134287        4.4880908099       -1.0667550645
 H        -1.4562029386        6.8415270718        0.7288114566
 H        -0.1837410186        5.7167075536        1.0647390624
 H        -0.8831833461        5.6316736742       -0.4696562166
 H         1.2649272988        1.7133899530        1.3384353996
 H        -0.2324565636        1.1331305397        0.7847003466
 H         4.0948501663        0.0506693812        3.5390593511
 H         3.9912390391       -1.5353622606        3.1998837978
 H         1.4510183591        1.6544344107        4.8269647264
 H         2.8659795375        1.7724257060        3.7259764789
 H         2.8081646942        0.5143942302        5.0176144509
 H         0.6642362778       -1.1206522819        4.9289859145
 H         0.4584702988       -1.8531764728        3.2506845076
 H         2.1578916983       -1.8716821577        4.1007062485
 H         4.7067383764       -1.3288610446        0.7913131462
 H         5.4786233134        0.2998046299        1.2322843997
 H         8.3323450440       -3.1770433165        0.7776874457
 H         7.8498455778       -2.2170272851       -0.6952135565
 H         7.2647826254        0.4730095081        4.1416009444
 H         7.0812874394        1.2485750694        2.6475103695
 H         8.6626962138        0.8188958191        3.3371917950
 H         9.6194920821       -1.8922762122        2.9104402460
 H         8.5218026808       -1.3727492587        4.2073313881
 H         8.1792424376       -2.8287637867        3.4762534558
 H        10.3335011460       -3.1717109772       -0.0202849125
 H        10.5455619225       -1.5159330684        0.0963831795
 H        10.3021586582       -5.6995912025       -2.1609701287
 H         9.4331548056       -4.3771669487       -2.9489877768
 H        11.6637738345       -2.2111314887       -4.9112659725
 H        10.6870055375       -0.8600168397       -4.3092720920
 H         9.9153159009       -2.4738374742       -4.6482579024
 H        12.2079946185       -1.1001848778       -1.0494787489
 H        13.1250774376       -1.2178256188       -2.5576178987
 H        11.6702841165       -0.2217696441       -2.4133152043
 H        10.9509466181       -4.6115725494       -4.9675581609
 H        11.8389817263       -5.8823592960       -4.2091313946
 H         9.7538553613       -9.9556229490       -7.3938444538
 H        10.5021521718       -9.5231778604       -5.8042226444
 H         8.7697386001      -10.0026352015       -5.7765566968
 H         8.5305958715       -5.6407897221       -7.5797074125
 H         9.7322180448       -4.7130543541       -6.6047506045
 H         8.4087098512       -5.3317447347       -5.8483447312
 H        11.5782348669       -5.9501759391       -7.3849914047
 H        12.0385757026       -7.1535233092       -6.1649567962
 H        11.1624580178       -7.6422526021       -7.6255750689
 Na       -2.9536198441        0.8797123897        2.6104673375
