155

 C       -16.3753819990        2.6452949544       -3.0636487951
 C       -14.9651792607        2.1771567370       -2.7005414602
 C       -13.8440144000        3.1466888730       -3.1795761563
 C       -12.2583892711        2.7395461987       -2.9746518571
 C       -11.8765648074        1.1850667730       -2.4072763193
 C       -14.0714989141        3.7346577522       -4.5806755197
 C       -13.9201758468        4.3146427394       -2.0780335089
 O       -14.8132191994        1.4406552004       -1.7335144672
 O       -11.3699535727        3.2719983660       -3.4915204427
 C       -11.7850571592        0.8564920963       -0.8690374862
 C       -10.6119857187        1.3914380028       -0.1445577118
 C        -9.0760253248        1.1509720648       -0.6415170184
 C        -8.1899697200        1.4031914078        0.6166963258
 C        -8.6430472490        0.9699288202        2.1324755580
 O       -10.8023505568        2.1546112493        0.7653737149
 O        -7.0885883087        1.8404230408        0.4951235990
 C        -8.9003251980       -0.2736815111       -1.2969568431
 C        -8.5634940274        2.3052935424       -1.6649783176
 C        -7.5370961901        0.3229250047        2.8422979915
 C        -6.2015964570        1.0567539997        3.1087722102
 C        -5.9707095977        2.1470084380        4.1732624196
 C        -4.8269428102        3.1199594522        3.7735852343
 C        -5.1512185897        4.4070756758        3.0302014609
 C        -7.2994087027        2.9788725240        4.4030942772
 C        -5.6982670927        1.5565332313        5.5122980806
 O        -5.2322115188        0.4865217196        2.7183850770
 O        -3.6936503726        2.8129423723        4.1797849981
 C        -4.0321718610        5.4684789251        2.9451079677
 C        -2.6088603127        5.4625663468        2.3227680451
 C        -2.1211938790        4.8971184205        0.9289635980
 C        -1.6399491202        3.4305492318        1.3572444937
 C        -0.3184975726        3.0774504353        2.0323342783
 O        -1.7848330300        5.9705248140        3.0434613717
 O        -2.5024517771        2.6161205352        1.0631390508
 C        -3.2458465290        4.8088364261       -0.0824758255
 C        -0.9984786378        5.8653384054        0.2607356777
 C         0.1201870467        1.7319712157        1.4505856160
 C         0.1063435811        0.5915097304        2.4963580269
 C         1.4303315463        0.1245486701        3.1193460526
 C         2.5622537504       -0.2616911341        2.0041689310
 C         3.8638732348       -1.0178014917        2.4277116182
 C         1.8559390615        1.2728979024        4.1535288826
 C         1.1448400589       -1.1861010091        3.9641430435
 O        -0.9423080879        0.4046605368        3.1061032967
 O         2.3062685408       -0.0498953184        0.8417156170
 C         5.2120814812       -0.9949218285        1.7041169632
 C         6.3853911403       -1.7553294071        2.4110560287
 C         7.7144447154       -1.0071095470        2.4335703809
 C         8.2698166316       -0.9292666237        0.9623875451
 C         8.5061037151       -2.2427239088        0.2309074115
 O         6.1232464022       -2.8413744683        2.8241172571
 O         8.4943533409        0.1773214381        0.4517688422
 C         7.6408202088        0.4364303546        2.9127090445
 C         8.7631023663       -1.9022744172        3.2557855348
 C         9.8189513010       -2.3406672225       -0.5508705964
 C         9.6794001210       -2.0662464976       -1.9740319859
 C        11.2061471796       -2.1264658564       -2.6803214772
 C        11.5143030491       -3.8205556444       -2.5552593329
 C        10.5882826739       -4.9184027324       -3.1211230894
 C        11.1051289226       -1.8515071388       -4.2236269676
 C        12.4147108866       -1.4342311846       -2.1207253678
 O         8.6805439005       -2.1003404072       -2.6951028468
 O        12.3400813028       -4.2003795362       -1.7918421049
 C        11.4135465523       -5.6807160819       -4.2200781441
 C        10.1532581315       -6.6878151665       -4.6674431618
 C         9.7412097986       -6.6920017857       -6.1825477112
 C         8.6982707778       -7.8566505795       -6.4000344952
 C         9.4714783017       -9.2834237737       -6.0432518421
 O         9.7200137122       -7.3841814143       -3.8025386822
 O         7.5186326271       -7.8585682321       -6.5089113738
 C         9.0431619081       -5.4287048345       -6.7231360983
 C        10.9573867068       -6.9712378828       -7.0573503078
 H       -16.9521128331        2.9356153774       -2.1322101768
 H       -16.4761827051        3.6986208666       -3.6244310001
 H       -16.9478256699        1.7603638563       -3.5479236813
 H       -12.3096728411        0.4207871553       -3.0009104996
 H       -10.8566845914        1.0887728487       -2.7188226425
 H       -14.3467867680        2.9416912095       -5.3151848143
 H       -13.4123385776        4.4106043627       -5.1087499121
 H       -15.0849864958        4.2901408688       -4.4540866338
 H       -14.9295954412        4.6227660228       -1.7854927085
 H       -13.5214299144        3.7894199743       -1.2058324430
 H       -13.4289312900        5.1751634004       -2.4116872842
 H       -12.5968980441        1.2773783695       -0.3699119660
 H       -11.7150274269       -0.1829591104       -0.6434611766
 H        -8.9512784083        2.0214931323        2.5084274583
 H        -9.5489130043        0.3526218349        2.2225748546
 H        -9.5327327843       -0.4187931051       -2.2542141810
 H        -9.2188135921       -0.8839138769       -0.5067797686
 H        -7.8246305628       -0.3109870479       -1.4682065840
 H        -7.8157561647        1.7515616590       -2.3233338473
 H        -9.3550284851        2.2926576585       -2.4787905699
 H        -8.2632626609        3.3269338984       -1.3175052004
 H        -7.1087819837       -0.5890536849        2.2552995657
 H        -7.9274774803       -0.0092000598        3.7714749927
 H        -5.5022577210        4.0765385312        2.0879861612
 H        -6.0545118032        4.8175072669        3.4150029396
 H        -7.4615101177        3.5549127618        3.4445247617
 H        -7.2897412208        3.8102776305        5.0811296342
 H        -8.0196672442        2.2558755159        4.6204542739
 H        -5.1108957685        0.5687348640        5.4657481353
 H        -5.2154201462        2.2552450986        6.1760382398
 H        -6.5730587742        1.2694013143        6.1324950196
 H        -4.4797000440        6.3655209153        2.3123793918
 H        -3.8915060172        5.8596873785        3.9506116980
 H         0.4496864218        3.7870800418        1.7142635847
 H        -0.4263703396        3.1363530589        3.1177570886
 H        -3.5720233217        5.8563725100       -0.4008364558
 H        -3.9971411444        4.2538834514        0.4795193872
 H        -2.9528634136        4.3602447704       -1.0571205069
 H        -1.1177032374        6.8029898218        0.8633113728
 H         0.0374025362        5.6365939101        0.2325010151
 H        -1.1598551540        6.0288278705       -0.8132893235
 H         1.0625063595        1.6400542909        0.8862804357
 H        -0.5334479065        1.4043451621        0.7236681259
 H         4.0505156930       -0.7152149082        3.5073666105
 H         3.6430221299       -2.1333007798        2.6106423118
 H         1.5516889299        1.0846305492        5.2431808686
 H         1.5827006708        2.1726160876        3.7015232335
 H         2.9734877286        1.2482619705        4.2474133292
 H         0.4492704129       -0.9655916813        4.7578330541
 H         0.7956729120       -1.9138920579        3.2875574282
 H         2.0684343356       -1.4958683564        4.3711017146
 H         5.1981062734       -1.5773944029        0.7460521735
 H         5.4602439280       -0.0134236684        1.4691007606
 H         8.4193620011       -2.9305944121        1.0923010959
 H         7.6579308678       -2.4220937089       -0.3275708947
 H         7.1407709185        0.5496003479        3.9108113561
 H         7.0716038557        1.0232381161        2.2547004725
 H         8.5606131940        0.8855440371        3.2791637298
 H         9.7458048615       -1.7732542527        2.7004359747
 H         8.8864947672       -1.5781386144        4.2989180041
 H         8.2689634355       -2.8961947195        3.2824227908
 H        10.3462466420       -3.3444635722       -0.3460367602
 H        10.5005419240       -1.5657552528       -0.0174118832
 H        10.5105636841       -5.5460761642       -2.2007707544
 H         9.6157340834       -4.7179520578       -3.4946034911
 H        12.0436198282       -1.9067473977       -4.7324639885
 H        10.6242640633       -0.9881345679       -4.5425955663
 H        10.5421420379       -2.7601211985       -4.6395261109
 H        12.9970125245       -2.0291299974       -1.4858267761
 H        12.9765094258       -1.1467166302       -3.0857124322
 H        12.1606035766       -0.5728420395       -1.4837227738
 H        11.6381043501       -5.0267833469       -5.0890390601
 H        12.2808632300       -6.2126755758       -3.9207711035
 H        10.4192868419       -9.2603133597       -5.6908751684
 H         8.9380179313       -9.5228864665       -5.0176180225
 H         9.1924615063      -10.1338436133       -6.7325987877
 H         8.9459031698       -5.6394751902       -7.8132272161
 H         9.6561296212       -4.5190395450       -6.6126697095
 H         8.0208685832       -5.1734105637       -6.4382102310
 H        11.4744400701       -5.9820676728       -6.9346608628
 H        11.5233065113       -7.7987070606       -6.7443632274
 H        10.6462415906       -7.0273203099       -8.1069274904
 Na       -3.0722218288        0.8815914303        2.5881016741
