155

 C       -16.3061581567        1.9942086294       -2.2046780186
 C       -14.8874991064        2.1194025983       -1.6670815234
 C       -13.9063283718        2.9170566819       -2.6542490981
 C       -12.4809987891        2.1655224451       -2.6106494116
 C       -12.3655585300        0.7079042593       -2.0772377941
 C       -14.2698288279        3.2218698540       -4.0980954121
 C       -13.7243772746        4.2653040415       -1.8734441575
 O       -14.3827663188        1.9329826222       -0.5295592889
 O       -11.5586551863        2.8456333660       -3.0410732882
 C       -11.6498202993        0.5798480297       -0.6982436499
 C       -10.5131002316        1.6194584596       -0.1498787256
 C        -9.1120060953        1.3798457040       -0.6708463568
 C        -7.9465548435        1.6495717103        0.4623345619
 C        -8.2130518261        1.8876943085        1.9839381539
 O       -10.7349878247        2.3401876837        0.7875001650
 O        -6.8186849285        1.6372520255        0.0655859257
 C        -8.8362622196        0.2049316688       -1.5860260843
 C        -8.8821166268        2.8154856151       -1.5599914640
 C        -7.2363575176        0.8775105579        2.7733270061
 C        -5.9459150144        1.3949965304        3.3042750010
 C        -5.6691719288        2.5908627580        4.4324510251
 C        -4.5704316835        3.5241663837        3.4875711845
 C        -5.1155290698        4.7761652986        2.6507185764
 C        -6.8072888388        3.3945392959        4.9546682352
 C        -4.7475352128        2.0795671316        5.5044979652
 O        -4.9546793059        0.8120411257        2.8313563437
 O        -3.4150464814        3.2625511202        3.4664694118
 C        -4.1824333753        5.9781863789        2.4951933596
 C        -2.7334105273        5.5151853165        2.2568862286
 C        -2.3468404283        4.8724829446        0.8994468884
 C        -2.0750844216        3.3598513100        1.2669302446
 C        -0.6724476382        3.0813970161        1.9996092345
 O        -1.7858552907        5.5077499981        3.0476633198
 O        -2.8787130925        2.4915226570        0.9028502907
 C        -3.3828833166        4.8640583578       -0.1855451359
 C        -1.1305599721        5.5901682133        0.3606529425
 C         0.0135280417        1.9015814836        1.4534337851
 C         0.1095869208        0.5641329192        2.4274001991
 C         1.4523081088        0.1624976914        3.0733012740
 C         2.4588201961       -0.4824380343        1.8698746311
 C         3.5014738198       -1.6168858759        2.2148747697
 C         2.2098926391        1.4000593313        3.7077264891
 C         1.1014784915       -0.9527111364        4.1417747181
 O        -0.8658388458       -0.1641934741        2.4218292774
 O         2.3033500088       -0.1404176745        0.7362345837
 C         4.9286815471       -1.3247578866        1.5947794232
 C         6.1161943267       -1.8355828481        2.5793395621
 C         7.5778171376       -1.1706966507        2.3934184950
 C         8.0222379375       -1.0078396788        0.8482435457
 C         8.3332456743       -2.2065636072       -0.0365882483
 O         5.9959891985       -2.6238776691        3.4618558527
 O         8.1055038942        0.1825505353        0.4332553307
 C         7.5548916343        0.1966769091        3.1913867567
 C         8.7175113068       -2.1343313257        3.0308637333
 C         9.8655623491       -2.3315572860       -0.4849378791
 C        10.0221143425       -2.2015787379       -1.9332665948
 C        11.3449699312       -2.3592313239       -2.6500520215
 C        11.8883500651       -3.8127266002       -3.1126139502
 C        10.6010373413       -4.6161900561       -3.5272515028
 C        11.4223937140       -1.4320634135       -3.9260824457
 C        12.4283845551       -1.8030022814       -1.6480899123
 O         9.1067321571       -1.9870420125       -2.6879843802
 O        13.0651175023       -4.2963541838       -2.9762675100
 C        11.0646292027       -5.8106167646       -4.4445292557
 C        10.0911665628       -6.9893574388       -4.7857690988
 C         9.3698101174       -6.9006125414       -6.1143538917
 C         8.1415398081       -7.9279753834       -6.4161187066
 C         8.3772206184       -9.4858226820       -6.0474299589
 O        10.1567009578       -8.0256375673       -4.0982148226
 O         7.1647281042       -7.5155470865       -7.1018440267
 C         8.8121809062       -5.3544624623       -6.4050949573
 C        10.4330889412       -7.4674654426       -7.1722877093
 H       -16.5128013864        1.6220374340       -3.0829509740
 H       -16.9309452765        1.5872800071       -1.4563334207
 H       -16.7381787971        3.0261810269       -2.2503095534
 H       -13.3247194705        0.2414548049       -2.0225000752
 H       -11.7392415749        0.2185555390       -2.8124939322
 H       -14.6912062819        2.5026451548       -4.7248019178
 H       -13.3043885683        3.4023365243       -4.5578212404
 H       -14.7653070229        4.1420932616       -4.3992474864
 H       -14.7281680425        4.6237905918       -1.4409500387
 H       -12.8822918466        4.2457432264       -1.1061244425
 H       -13.4368138090        5.0743630475       -2.5390261578
 H       -12.4026017246        0.6194401635        0.0261282204
 H       -11.3669936650       -0.4679012459       -0.5597580254
 H        -7.8918912979        2.8853106744        2.2994481540
 H        -9.3193526891        1.7872733236        2.2546742149
 H        -9.3940714296        0.4070437899       -2.4442808526
 H        -9.3074628661       -0.6619342779       -1.1071816452
 H        -7.7772558409        0.1653658239       -1.6037946992
 H        -7.8557171596        2.6539042322       -1.8562698817
 H        -9.4080563432        2.9084504989       -2.4833370090
 H        -9.0724904849        3.7045014685       -0.9167024542
 H        -7.0376900301       -0.0300598024        2.3929897858
 H        -7.7931856958        0.5609322514        3.6684078771
 H        -5.2562445280        4.2683483324        1.6511712407
 H        -6.0632165854        5.1288776839        3.0918647219
 H        -7.5412419248        3.5237271107        4.1707130988
 H        -6.5883445503        4.2354604931        5.6335475720
 H        -7.3148630547        2.6432426440        5.6247418052
 H        -4.8140908959        2.4841147538        6.5113627177
 H        -4.7391679794        1.0883562747        5.7476650547
 H        -3.6865835853        2.4173381487        5.2663291949
 H        -4.4887145194        6.4793743861        1.6068306465
 H        -4.2928084373        6.6196387510        3.4415332413
 H        -0.0159492293        4.0168565973        2.0218691673
 H        -0.9568492163        2.9287883700        3.0583707094
 H        -3.7397871231        5.8993710534       -0.1627788746
 H        -4.1838360335        4.2126785079       -0.0009069319
 H        -2.9690120158        4.6949913127       -1.1952002638
 H        -1.5482357207        6.3636267565       -0.2755172945
 H        -0.5680444853        6.1108430321        1.1644365659
 H        -0.4289488647        5.0490670278       -0.3506211530
 H         0.9550022534        2.1665409715        1.0756213721
 H        -0.4405708668        1.3890157918        0.5204790761
 H         3.7489629924       -1.8608592352        3.2666530859
 H         3.0900291046       -2.4971270836        1.7491038864
 H         1.5917934279        2.3092729173        3.5790701114
 H         3.2280803220        1.6431076702        3.2766009165
 H         2.1971278265        1.2325978898        4.8212101656
 H         0.7915248607       -0.5036078982        5.0215459821
 H         0.2587035783       -1.4379036876        3.7042089610
 H         1.8777108355       -1.6502666477        4.2322779870
 H         4.9320222608       -1.7146349896        0.5412037040
 H         5.1741467520       -0.2381208033        1.4109483332
 H         7.7824197973       -3.1597789479        0.2927348621
 H         7.9079662424       -1.9003403268       -0.9215503650
 H         7.0901891470        0.0844764811        4.2269068081
 H         7.1027292166        1.0390050066        2.7315064682
 H         8.5292008982        0.7853360029        3.3336827026
 H         9.7188581988       -1.6570492829        3.1490673657
 H         8.3713731685       -2.1486162472        4.0929966371
 H         8.7244685870       -3.1105362554        2.5137314347
 H        10.2719157330       -3.2013537147        0.0843496658
 H        10.4943695023       -1.5515119847       -0.0203309596
 H        10.1816714505       -4.8678014739       -2.5720919791
 H         9.8240580344       -4.1696443763       -4.1394281065
 H        12.4599566029       -1.5625233484       -4.2346541666
 H        11.1616693576       -0.4254299954       -3.7369594529
 H        10.7433161194       -1.7818637335       -4.6996391234
 H        13.4325846414       -2.0865894175       -2.0353718819
 H        12.4511358301       -0.7832654627       -1.3240382699
 H        12.2759794463       -2.3551033070       -0.6787556784
 H        11.3284775712       -5.2900775348       -5.4043713143
 H        12.0404154969       -6.2557066480       -3.9341707326
 H         7.9857510755      -10.1658032101       -6.6785142518
 H         9.4328528630       -9.7698234609       -5.9358405059
 H         8.1037440529       -9.7767009792       -4.9255877995
 H         8.2831649977       -5.3623299068       -7.3287312047
 H         9.5981449078       -4.6538952829       -6.6366731186
 H         7.9779072977       -4.9367214235       -5.7762529876
 H        11.3786662457       -6.9307222178       -7.2603282925
 H        10.6305016954       -8.4921104244       -6.7749396381
 H         9.9763819785       -7.4735341204       -8.1703266689
 Na       -2.7727381642        0.8832009891        2.6198286931
