155

 C       -16.2550254045        1.5935735213       -1.4401829287
 C       -14.8604290656        2.0908877409       -0.9878444378
 C       -13.9158018859        2.5874878930       -2.1219263434
 C       -12.4022755709        2.0278446262       -2.0656484462
 C       -12.1284624846        0.6270427963       -1.4540304691
 C       -14.2800025891        2.6418002909       -3.6295483644
 C       -13.6484975940        4.1788216818       -1.7483846293
 O       -14.3968584069        2.0147899605        0.1446404197
 O       -11.5727084416        2.7429046682       -2.4782372403
 C       -11.1714240796        0.7044843933       -0.2224380008
 C       -10.2700968222        1.9109942693       -0.2025333791
 C        -8.9001085168        1.8408737819       -0.8094429732
 C        -7.9942005755        1.6609303449        0.5685597544
 C        -8.5164182006        2.0474221939        2.0375601811
 O       -10.5798473112        2.8897028271        0.3672080761
 O        -6.8152132038        1.4233573543        0.5064267150
 C        -8.7071182550        0.5229152413       -1.6926638030
 C        -8.4905787504        3.0647931916       -1.5211387546
 C        -7.6920212784        1.0538996832        3.0830732428
 C        -6.2062538876        1.4880470043        3.1875555888
 C        -5.6371543905        2.6255835497        4.0835877490
 C        -4.5904962177        3.5450276960        3.2551571787
 C        -5.0026145086        5.0898131416        2.9909686358
 C        -6.7639700222        3.4006821867        4.9799144947
 C        -4.6164102788        2.0055706539        5.2349927264
 O        -5.4012545552        0.8774331124        2.5134683590
 O        -3.4696353227        3.2333954532        3.0081649919
 C        -4.0154276682        5.8729680519        2.1600277029
 C        -2.5546878747        5.4380358354        2.1318167118
 C        -2.1338557797        4.6575738443        0.6958667692
 C        -1.6845126044        3.3118310876        0.8815526058
 C        -0.5368759830        2.9228692871        1.7484431027
 O        -1.7441683815        5.8788784321        2.8961829191
 O        -2.2798777563        2.3319073118        0.4037765605
 C        -3.2549175505        4.6991081188       -0.4718376247
 C        -0.9009465495        5.5860420539        0.3417721423
 C         0.0288503835        1.6431979097        1.4197436010
 C         0.1616920756        0.6319289450        2.5127869087
 C         1.5695181973        0.1321193459        2.9153787932
 C         2.4579595352       -0.3912921531        1.7888062669
 C         3.7687353766       -1.0003223509        2.4052779218
 C         2.4362505858        1.3500740128        3.3837595084
 C         1.4428056842       -0.9897546889        3.9840336335
 O        -0.8264722721        0.2631667160        3.0845374934
 O         2.3070250732       -0.3548372165        0.5585133240
 C         5.0038736167       -0.9683848082        1.5270372053
 C         5.9596759728       -1.7652353832        2.4080166522
 C         7.4981461160       -1.3764432949        2.3445808554
 C         7.8206802592       -1.0378978782        0.6968863034
 C         8.2237204785       -2.1485075125       -0.2222959529
 O         5.5648500951       -2.6572067178        3.0918550611
 O         7.5943269799        0.1561342954        0.3485109446
 C         7.7392647390       -0.0477210528        3.0592320278
 C         8.3371738104       -2.5824689971        2.9392593233
 C         9.7663093068       -2.1103569933       -0.4065736409
 C         9.9727290980       -2.3405248344       -1.8936446692
 C        11.4468902807       -2.3599291403       -2.4612243095
 C        11.7234966217       -3.7722227416       -3.3752662675
 C        10.4847380771       -4.7324589689       -3.5956958341
 C        11.6396187259       -1.2713915414       -3.5661168779
 C        12.5802903451       -2.4777027463       -1.4250517148
 O         9.0283882590       -2.5145930478       -2.5849874601
 O        12.8490595206       -4.0176279576       -3.7565017083
 C        10.9519324573       -5.9778915339       -4.4676940387
 C         9.9060926686       -7.0854619226       -4.8813135771
 C         9.2829789124       -6.8897038567       -6.3392440174
 C         7.9689897604       -7.8759164160       -6.3347647932
 C         8.1362889925       -9.3016983696       -5.8619521530
 O         9.5988308454       -7.8949915816       -4.0497593384
 O         6.9967717246       -7.2636736069       -6.6415567479
 C         8.8695624804       -5.4694043419       -6.7022776694
 C        10.3245822187       -7.5141864339       -7.4481351595
 H       -16.2892708939        1.6464205676       -2.5075652869
 H       -16.5244693020        0.5588558902       -1.1302561031
 H       -17.0677722185        2.0215120398       -0.9742256984
 H       -13.0136630305        0.1286001476       -1.2615353349
 H       -11.5409768410        0.1621391250       -2.2087192583
 H       -14.9857336438        1.9225981058       -4.0456135797
 H       -13.4498841018        2.4354988596       -4.2573329412
 H       -14.8682764272        3.5434951405       -3.9885368345
 H       -14.4208879994        4.7835360581       -2.1607099211
 H       -13.8951302402        4.2943315836       -0.6783881103
 H       -12.6910384562        4.4981129507       -1.7448264179
 H       -11.6822659411        0.7531327096        0.6508783070
 H       -10.6929501906       -0.2308114474       -0.1230405518
 H        -8.2426431817        3.1427208056        2.1241941702
 H        -9.6429151937        1.8942980520        2.1975648421
 H        -9.3821388294        0.6899722667       -2.5966475691
 H        -8.9117970710       -0.2231910478       -0.9606149426
 H        -7.6443427285        0.4136247366       -1.9205346820
 H        -7.3524575700        3.2003892111       -1.5006933248
 H        -9.0562387675        3.1139335759       -2.5401141857
 H        -8.8235808462        3.9488406245       -0.9578782422
 H        -7.7622198879        0.0461940901        2.7992201915
 H        -8.2024649957        1.0623597355        4.0383191044
 H        -5.9179519243        5.0995078989        2.4413515847
 H        -5.0507373526        5.5598530425        3.9194053907
 H        -7.6768741911        3.5019174352        4.4603357293
 H        -6.3636581202        4.1759962719        5.6492728248
 H        -7.2757432421        2.7114000616        5.5749684673
 H        -4.1222964045        2.7728468777        5.8565638449
 H        -4.8836584961        1.2133737548        5.8582993865
 H        -3.6798515387        1.5031036359        4.7876616004
 H        -4.3978782320        6.0997454689        1.1290123098
 H        -4.0454401110        6.8922691155        2.6699311789
 H         0.2115859258        3.7701746112        1.8497527334
 H        -1.0434466689        2.9109577654        2.6827561817
 H        -3.4011955086        5.7262675935       -0.9402006669
 H        -4.2748625253        4.5021492140       -0.1147762878
 H        -3.0838221068        3.7506131513       -1.0002017378
 H        -1.1535206062        6.6384523258        0.3585933692
 H        -0.1653837905        5.3416571250        1.0622343435
 H        -0.5741064602        5.4318003476       -0.7228990156
 H         1.0818663627        1.8391260340        1.0675352393
 H        -0.5644417727        1.2421132435        0.5850045244
 H         4.2060869217       -0.6973071862        3.3527707045
 H         3.5379424882       -2.0761306360        2.4634251354
 H         3.4940917247        1.1703949326        3.1294647733
 H         2.2417668619        1.5571564066        4.3997099385
 H         2.0067013701        2.2978828305        3.0107572627
 H         0.4386106435       -1.1747699552        4.3953045145
 H         1.7275409913       -1.9386753568        3.4998482424
 H         2.2406517160       -0.6989173164        4.6651573186
 H         4.6211457997       -1.3962749332        0.5299495719
 H         5.3644925791        0.0402935975        1.3723044864
 H         7.9007187119       -3.1264583285        0.2465269409
 H         7.7730336937       -2.1747008113       -1.1103724670
 H         7.5495058656       -0.0101880462        4.1709618748
 H         7.1862924740        0.7988158483        2.7742872880
 H         8.8207772838        0.2780368014        2.8387588173
 H         9.3964213578       -2.3917169211        2.7596177170
 H         8.0086630077       -2.8552181890        3.9371560106
 H         8.1879377250       -3.4460270357        2.2943028905
 H        10.5761240744       -2.7751502669       -0.0350045361
 H        10.0281630515       -1.0066670015       -0.2122760206
 H        10.4226727393       -5.1521227011       -2.6397363998
 H         9.5054305641       -4.3159986620       -3.7733982639
 H        12.3247245151       -1.6586758409       -4.3346718745
 H        12.1586456185       -0.4918941097       -3.1666311457
 H        10.6765026436       -0.8919327657       -4.0068801129
 H        12.6125706598       -1.8538145444       -0.5929184000
 H        12.6458407247       -3.5843511506       -1.0418043519
 H        13.6220088986       -2.4460311609       -1.7856201643
 H        11.2614372846       -5.4446821919       -5.4334949758
 H        11.9630047868       -6.2907660079       -4.0297305990
 H         9.0378048527       -9.5427641788       -5.3144687118
 H         7.2043013616       -9.8609193488       -5.4304054953
 H         8.2395798377       -9.8694931628       -6.7012145100
 H         8.4221616719       -5.4176150898       -7.6756688553
 H         9.5208596412       -4.6257427143       -6.5865699092
 H         7.9939492943       -5.3138329395       -5.9888624045
 H        11.2449376719       -6.9398869203       -7.4008740722
 H        10.6630513356       -8.5142793213       -7.2316969967
 H         9.8123328055       -7.4841563823       -8.4062522009
 Na       -3.0096742102        1.0168639195        2.2568119163
