155

 C         4.0523143007       -7.8902316904        6.6926041492
 C         2.9970085092       -6.7698234395        6.6062758706
 C         2.0597863784       -6.5960488686        7.8108928042
 C         1.5567380356       -5.0924038261        7.7623337212
 C         0.5838372357       -4.6432136934        6.5751570025
 C         0.8595737479       -7.5498503343        7.7297997486
 C         2.7930437983       -6.7996927439        9.1300153604
 O         2.7043219082       -6.2898302329        5.5150642021
 O         1.8396497212       -4.3070407222        8.6764418837
 C         0.2036654628       -3.2195746936        6.5948370421
 C         1.1982911984       -2.2712096867        5.9703513914
 C         1.2309755354       -0.7674710768        6.6192722305
 C         0.0954670756       -0.2579327307        5.7424094953
 C         0.3612493267        0.3342155467        4.3353564146
 O         1.9010663109       -2.5209151681        4.9910441995
 O        -1.0709250934       -0.5102296376        6.0799000273
 C         0.7902984687       -0.7397561041        8.1440049241
 C         2.5604621749        0.1260166790        6.3099303534
 C        -0.9528520478        1.1031328379        3.8861606381
 C        -0.7416930223        1.5838340285        2.3992637941
 C        -1.2387176300        3.0159479876        1.8515487885
 C         0.0611681294        3.4386175667        0.9314276157
 C         1.1838110353        4.3440981757        1.4452901503
 C        -2.5193508903        2.8057352586        0.9397092378
 C        -1.5025049948        4.0605227127        2.9711283834
 O        -0.4161513334        0.7360038784        1.6110787477
 O         0.1373191981        2.9711608666       -0.1608635802
 C         2.3724895524        4.6106412628        0.4404535732
 C         3.6923001926        3.8909929002        0.9544752104
 C         4.8731407890        3.3723703638       -0.0011175503
 C         4.6650527046        1.9110400776       -0.3990022658
 C         4.5802927738        1.0190949513        0.8749543428
 O         3.7057233172        3.6078358407        2.1255456981
 O         4.6017056392        1.5751667802       -1.5824003059
 C         4.8711673725        4.2195573838       -1.2977017650
 C         6.2472251697        3.5403284302        0.7741407630
 C         4.4452736383       -0.4131051248        0.4068401326
 C         3.0933938510       -0.6273526227       -0.5404391572
 C         3.0198632239       -1.9113460203       -1.4974066789
 C         1.9323269743       -1.3893435384       -2.5329810185
 C         2.3861969916       -1.1751444770       -3.9470518379
 C         4.3714064804       -2.3244791522       -2.1563313440
 C         2.4095677691       -3.1137634017       -0.7632385483
 O         2.1821599056        0.1452652650       -0.3020321085
 O         0.8099655529       -1.1796051532       -2.1983918369
 C         1.3486217830       -0.2970712070       -4.7459647905
 C         0.7414462835        0.8025273162       -3.9436370326
 C        -0.6852518824        1.2557816807       -4.3724291276
 C        -1.6182235544        0.0901114608       -3.9275223130
 C        -2.2883167151       -0.8097348445       -5.0231738430
 O         1.3198897213        1.3657447417       -3.0046860579
 O        -1.6865041440       -0.0106783160       -2.7273036891
 C        -1.0707110207        2.6916811993       -3.8034138166
 C        -0.4829614871        1.5617886428       -5.9275699061
 C        -3.1671287836       -1.8179150598       -4.3557629883
 C        -4.2373844334       -2.2679863946       -5.3590393451
 C        -5.7648088491       -2.3169268377       -4.9084580976
 C        -6.2009059068       -0.9487152729       -4.5342579356
 C        -5.6724255459        0.2994153775       -5.4218835031
 C        -6.5691519964       -2.8207553763       -6.1203182098
 C        -5.8071099278       -3.2875581605       -3.7096145167
 O        -3.7118386237       -2.6295221457       -6.4235912538
 O        -6.8363405103       -0.7970280667       -3.5028540738
 C        -5.8981606053        1.6876219991       -4.8366877878
 C        -5.0477058691        2.7579337276       -5.4213697484
 C        -5.4122515440        4.2214170290       -5.2388243498
 C        -6.8299050554        4.4902990187       -6.0662226402
 C        -6.8713225418        4.6909110253       -7.5479871814
 O        -4.0298324932        2.4753806765       -6.0685855633
 O        -7.7626232302        4.7801631392       -5.3801234648
 C        -5.7192049065        4.6262646037       -3.7274561082
 C        -4.3853832111        5.1484474400       -5.9045681504
 H         3.7193573315       -8.6322071480        5.9310729655
 H         4.9852791991       -7.4098641299        6.4348258033
 H         3.9519255058       -8.2828428327        7.6773776801
 H         1.0983234155       -4.7681025542        5.5494766646
 H        -0.2202351545       -5.3936209624        6.7391059683
 H         0.3161555225       -7.7628989508        6.7469254915
 H         0.0560367251       -7.1651849099        8.2873145543
 H         1.0778647182       -8.5570969466        8.1565042764
 H         3.7600254171       -6.1887538737        9.4076867862
 H         2.0879097455       -6.4598016530        9.8652151096
 H         3.1627596842       -7.8196120946        9.3892843796
 H        -0.7013021957       -3.0635933472        6.0092265865
 H        -0.0459849649       -3.0751879795        7.6142766410
 H         1.1923564709        0.9955598488        4.3359578405
 H         0.5899611273       -0.4938851913        3.5777863146
 H         1.0491212839        0.3161631460        8.5263101956
 H         1.3166818069       -1.5975760760        8.6533715809
 H        -0.2687158400       -0.9019863970        8.1801037956
 H         3.1239913353        0.0836276798        7.3131031592
 H         3.2020175554       -0.1242219377        5.4566272367
 H         2.2471808510        1.1880017430        6.2474940757
 H        -1.0621036032        1.9904657611        4.5537079903
 H        -1.7471145589        0.3874311822        3.9547161833
 H         0.8893484878        5.3071486349        1.7190270298
 H         1.4961617041        3.8676195239        2.4016654907
 H        -2.2240937958        2.0005363674        0.2893833421
 H        -2.8260954769        3.7279754119        0.5082598614
 H        -3.2217281192        2.4635019844        1.6643587580
 H        -2.0221735786        3.7400892069        3.8549853851
 H        -0.6388248304        4.5251397701        3.4473220584
 H        -2.1043337309        4.8937932861        2.6994600712
 H         2.1111422221        4.1699784024       -0.5028955706
 H         2.5079475299        5.6713050077        0.2005276350
 H         5.5418814538        1.1589322701        1.4002070448
 H         3.7002921058        1.4318729125        1.4120727216
 H         4.0073589288        3.8559323417       -1.8485529663
 H         5.6993383062        4.0054000154       -1.8954904385
 H         4.8240278915        5.2841855962       -1.1806345189
 H         6.4795259460        4.5873608600        0.8380636113
 H         6.1664357227        3.1816551033        1.8018900373
 H         7.0137094521        3.0145938389        0.2440307987
 H         4.3570144395       -1.1116997227        1.2860345095
 H         5.3020211215       -0.7374645631       -0.1264539908
 H         3.4062080950       -0.7801388718       -3.9750629804
 H         2.3453466485       -2.1943650048       -4.4148421064
 H         4.9422786246       -1.4269078016       -2.3992092980
 H         4.1510778064       -2.9885485908       -3.0019888418
 H         5.0191206437       -2.9239582448       -1.3527290195
 H         2.2838207195       -3.9285036671       -1.4781796989
 H         3.0474024190       -3.4919938770        0.0520845962
 H         1.3922234510       -2.9159543127       -0.4043483927
 H         1.8563940703        0.1239868413       -5.6275979271
 H         0.4257181313       -0.8801009097       -4.9894868519
 H        -2.8307188681       -0.0202453804       -5.6586217123
 H        -1.4884308394       -1.2586939916       -5.6196928157
 H        -1.5110359880        2.4728500409       -2.7916857922
 H        -1.9127898756        2.9915348866       -4.4178445944
 H        -0.2816746715        3.3771989751       -3.6065540618
 H        -1.5581453872        1.9069164286       -6.2678299002
 H         0.3520845291        2.1992172298       -6.2356827881
 H        -0.3291502629        0.6065726233       -6.4218485400
 H        -3.6270479023       -1.4757374890       -3.4597831062
 H        -2.5008747223       -2.6813498456       -4.0482466236
 H        -4.6109894211        0.0702366849       -5.7852577886
 H        -6.2031528145        0.2110258134       -6.3598014539
 H        -6.8585547277       -1.9856565711       -6.6463513003
 H        -7.5174932068       -3.3575148873       -5.9076313001
 H        -5.9404822763       -3.5271563722       -6.6880876658
 H        -6.5528123359       -3.0189090619       -2.9358990289
 H        -5.9950805380       -4.3805208558       -4.0051555656
 H        -4.8754837977       -3.3732911536       -3.1185756832
 H        -6.9260349213        1.8837229454       -4.9474224121
 H        -5.7765648532        1.7032879320       -3.7384214882
 H        -6.2493177179        5.5191783287       -7.8838642836
 H        -6.3274282347        3.8740269799       -8.0826182860
 H        -7.9060263866        4.6776000174       -7.7723710290
 H        -4.9915527036        4.0836262843       -3.1251975630
 H        -6.6940672607        4.3572000342       -3.5676062254
 H        -5.5523392021        5.6768939681       -3.5881294946
 H        -4.6360708624        6.1859851105       -5.7460414539
 H        -3.3882463901        4.9888511313       -5.7133302153
 H        -4.3371601420        4.8573193729       -6.9745119061
 Na       -0.0502170794        0.7357600754       -1.0105195061
