155

 C       -15.2881159392        2.2878898926        2.6663761420
 C       -14.1067324634        1.6756161692        1.8830545311
 C       -14.0034719262        1.3589302519        0.3696201120
 C       -13.1551869263        2.3590334163       -0.6336341409
 C       -11.9742354543        1.7118179941       -1.3285419771
 C       -13.6105983585       -0.0983111489        0.3791649149
 C       -15.4257879329        1.2729206155       -0.3689801903
 O       -13.0630015847        1.4261372852        2.4491080544
 O       -13.4870322436        3.4814789557       -1.0826803755
 C       -10.6978177380        1.4840521281       -0.4377823784
 C        -9.8084462863        2.7287560370       -0.0043456240
 C        -8.1544028257        2.8736667062       -0.0767991246
 C        -7.5751221224        1.9441588019        1.0165634386
 C        -7.6613316533        2.4016513945        2.5601411742
 O       -10.3908030016        3.7639624912        0.2007650831
 O        -7.2930999262        0.7565156314        0.9274213561
 C        -7.8450612241        2.1330087194       -1.5050599999
 C        -7.7587082366        4.3218147771       -0.0420922519
 C        -6.6848160340        1.5097529345        3.3866556276
 C        -5.2175308871        1.6648896933        3.1570038980
 C        -4.2098256578        2.8397664935        3.8889308762
 C        -3.7718911277        3.7264264376        2.6537094312
 C        -3.8443436592        5.2297760348        2.5490218922
 C        -4.9117967762        3.7379510125        4.8397329408
 C        -2.9951088817        2.2600939074        4.6359207226
 O        -4.5735473838        0.9583980644        2.3280284848
 O        -3.4311503725        3.1400985959        1.6711971517
 C        -3.5344333491        5.5931910603        1.1504591231
 C        -2.0771344241        5.1564229038        0.7216197351
 C        -1.5946653300        4.6506605315       -0.7399170988
 C        -1.0837945772        3.2215756075       -0.3350706274
 C         0.2713044842        3.1913974792        0.4930956271
 O        -1.2409166853        5.4138569526        1.5767851615
 O        -1.6861489684        2.1976935008       -0.4702334953
 C        -2.6107867753        4.6201406566       -1.7905751727
 C        -0.4534214297        5.5186126476       -1.2979983484
 C         0.9559748498        1.8450503535        0.9055173865
 C         0.3702520953        1.3608484504        2.2113553147
 C         1.3891448232        0.8011763765        3.3553204757
 C         2.3560606742       -0.1639034366        2.6449273077
 C         3.5971969237       -0.5484749163        3.3851235709
 C         2.2693972692        2.0850379277        3.6472856645
 C         0.6725539784        0.3153875517        4.5615019250
 O        -0.8503237459        1.3609634549        2.4324808715
 O         1.9323711262       -0.6627717703        1.5932255583
 C         4.9041542341       -0.3404670343        2.5801036231
 C         5.4161133361       -1.7256449375        1.9731079330
 C         6.9891890391       -1.8142990490        1.7174859504
 C         7.4917581542       -0.7161416696        0.7243124480
 C         7.5855304457       -1.2268171272       -0.7102217823
 O         4.6428126766       -2.5009113195        1.5113883617
 O         7.6592498700        0.3979651572        1.0726340416
 C         7.8471653051       -1.5270546425        3.0468757054
 C         7.4392074660       -3.2054076060        1.3468233240
 C         9.1118494075       -1.4592310985       -1.1465288222
 C         9.1815071749       -2.4387629077       -2.3440600408
 C        10.4730451891       -3.5846867909       -2.3549352920
 C        10.7910248935       -4.1926478650       -3.6831006244
 C        10.6669258483       -5.7613045655       -4.2320067843
 C        11.7305517607       -2.7609398491       -1.8672109706
 C        10.2631433506       -4.5203412589       -1.0778906754
 O         8.5087278222       -2.3684579854       -3.3471933782
 O        11.1702669177       -3.3909380030       -4.5025278053
 C        10.1688691792       -5.8257773622       -5.6573183974
 C         9.6436465450       -7.2748020832       -6.0198031470
 C         8.4647495752       -7.5503417052       -7.0417977771
 C         7.0199601367       -7.5401688419       -6.3115655380
 C         6.5083514109       -8.7466632941       -5.8159956525
 O        10.1554620989       -8.2628883419       -5.4610120585
 O         6.3789520197       -6.5010012021       -6.0527020645
 C         8.6645091990       -6.3317029900       -8.1868569540
 C         8.6423343799       -8.8962025218       -7.6278189031
 H       -15.6095016355        3.2040274735        2.3361539167
 H       -16.1074877279        1.5319819171        2.7212410444
 H       -15.0653343098        2.3746342522        3.7146386213
 H       -12.1337776214        0.6775564190       -1.8219848429
 H       -11.8529236379        2.5127550618       -2.1628491974
 H       -14.4975509563       -0.4183130776        0.7982103607
 H       -12.8321446726       -0.3179207593        1.0501350205
 H       -13.4788551962       -0.6114895425       -0.4920989615
 H       -15.2201546524        0.8888456362       -1.3342426808
 H       -15.9488685551        0.4616111064        0.2094260801
 H       -16.2488526449        2.0813175742       -0.3414408775
 H       -11.1110516428        1.0533004520        0.5607012753
 H       -10.1997092873        0.5696955225       -0.8898684056
 H        -7.2710992042        3.3591896911        2.6472452739
 H        -8.6424818310        2.3160775280        3.0396039321
 H        -8.3875651246        2.7386024968       -2.2377054172
 H        -8.2790910072        1.1394337325       -1.4259444127
 H        -6.8177386579        2.2692966261       -1.8274347851
 H        -7.7874518253        4.7468399977       -1.0712144897
 H        -8.3718020357        4.9059177465        0.5420398558
 H        -6.7189869279        4.5061787734        0.1583798924
 H        -6.9405501627        0.4877977576        3.1626286031
 H        -6.8312380687        1.6043442076        4.3502702990
 H        -4.7996399171        5.6416792520        2.8789353439
 H        -3.1756355858        5.6560176763        3.3325387192
 H        -5.9318154265        3.9387640500        4.4029307663
 H        -4.2567630385        4.5901382704        4.9978996775
 H        -5.2566260129        3.2336063728        5.7333691101
 H        -2.6970836846        1.5021392946        3.9242454494
 H        -2.2919731347        3.0268475320        4.9825181508
 H        -3.3952180760        1.6286739014        5.4168917175
 H        -4.4524925991        5.0384647454        0.6243338344
 H        -3.6386033863        6.6694422055        0.8697853505
 H         1.0316313402        3.6244230416       -0.1205907245
 H         0.1528488980        3.7926529235        1.4123066758
 H        -2.6288364114        5.5781032699       -2.1846429522
 H        -3.5888306299        4.3601652170       -1.4890584000
 H        -2.2775024483        4.0658547433       -2.6148626479
 H        -0.8014354544        6.5633352948       -1.3129479378
 H         0.4078782394        5.5705604521       -0.7101803333
 H        -0.1441245022        5.1489604609       -2.2916920509
 H         2.0776455458        2.1008634748        1.0420197880
 H         1.0371589165        1.0577545610        0.1269012750
 H         3.5671047504        0.1383293006        4.3205833436
 H         3.5773709813       -1.6064353129        3.7696594892
 H         2.8080888702        1.9989773859        4.6543059962
 H         1.8936356136        3.0754091023        3.4857722469
 H         3.0693834923        1.9878918486        2.8514285941
 H         0.2605714010        1.1204553770        5.1619789638
 H        -0.1174874061       -0.3716870143        4.3166850360
 H         1.2046888145       -0.2158878914        5.3092681761
 H         4.8582489563        0.2771405334        1.7120070770
 H         5.7105282553        0.0684669781        3.1435415042
 H         7.0273631304       -2.1342270182       -0.7221312016
 H         7.0700409839       -0.5090250393       -1.4217961023
 H         7.3127425882       -1.6935448322        3.9686821813
 H         8.2050149529       -0.4650528772        3.1420402124
 H         8.6160256282       -2.2799912580        2.9977104470
 H         8.4966163801       -3.2502626834        0.9958506706
 H         7.3530382829       -3.9227227924        2.1525818881
 H         6.8246872210       -3.4208593672        0.4658460944
 H         9.7102151546       -1.8288801254       -0.3769114416
 H         9.6015145131       -0.4815294321       -1.5087164192
 H        11.4537990632       -6.3228684853       -3.8956499363
 H         9.8152733738       -6.1222624633       -3.5397810296
 H        12.1228846681       -2.0524622270       -2.5557208673
 H        12.4601532339       -3.5267198864       -1.8366694299
 H        11.5452792859       -2.4106704827       -0.8475638380
 H         9.6899830214       -3.8800997041       -0.3879076476
 H         9.8022335334       -5.4010614291       -1.3129641254
 H        11.3268962001       -4.6123069948       -0.6889535537
 H         9.2578686723       -5.2164410630       -5.7066562976
 H        10.9689658006       -5.6554833057       -6.3009710589
 H         5.4918699684       -8.8632032563       -6.1050615549
 H         6.7716303940       -9.6546861461       -6.4648273543
 H         6.5264026512       -8.8447317237       -4.7818795163
 H         7.6729481283       -6.2606902806       -8.6065158559
 H         9.2995497356       -6.7069410013       -8.9854448525
 H         9.1260882839       -5.4557110275       -7.8311588361
 H         9.3905042826       -8.8387974718       -8.4161235964
 H         8.8795032190       -9.6397831398       -6.8726424518
 H         7.7977475966       -9.2541830458       -8.2721716463
 Na       -2.7547759777        1.0618981652        1.0740067489
