155

 C       -13.3571875285        2.6984315433        3.6379805415
 C       -12.8701158296        1.5387235239        2.7549432942
 C       -13.6021245196        1.0239496921        1.5053225074
 C       -13.2513884570        1.8979766889        0.2244581526
 C       -11.9783821231        1.5739111414       -0.4314373567
 C       -13.2768792710       -0.5547186177        1.3542910770
 C       -15.0833697528        0.9785335758        1.6722447870
 O       -11.8907865642        0.8916646767        3.1785997788
 O       -14.0848015822        2.5512208164       -0.3173440881
 C       -10.6711643719        1.6735773646        0.4268492349
 C       -10.0751396884        3.0469637583        0.3742370639
 C        -8.5031453949        3.0174196398        0.0206641555
 C        -7.8540929263        2.0078204030        0.9022111114
 C        -7.9106077553        2.2091638194        2.4755772976
 O       -10.5297513190        4.0802640938        0.7358703211
 O        -7.4760773454        0.9019449902        0.3744166058
 C        -8.4234493497        2.6262758714       -1.5151657225
 C        -7.8423322146        4.4155667663        0.1836148549
 C        -6.6251759910        1.7867820214        3.1767492359
 C        -5.3324676403        2.3486067589        2.6256243660
 C        -4.6816998161        3.5854684461        3.4962972765
 C        -3.7204562114        4.2719589223        2.6204015699
 C        -3.9332928777        5.5827689690        1.9341960801
 C        -5.8098781983        4.4119418025        4.1208769422
 C        -3.9274708873        2.6686341700        4.7207271361
 O        -4.7745866995        1.8795992674        1.6912557971
 O        -2.6830558982        3.5941067651        2.3508880130
 C        -3.6482787066        5.5719838522        0.4244608890
 C        -2.0317046037        5.5667884253        0.2727696872
 C        -1.3561924492        4.9724593694       -0.9123155496
 C        -1.1556344012        3.3887525520       -0.6458883162
 C         0.2524519267        2.8823303417       -0.1468484010
 O        -1.3210012577        6.1002198901        1.1060344844
 O        -2.1667316987        2.6899505333       -0.6906613817
 C        -2.2468840359        5.2405716764       -2.2452051826
 C         0.0696020204        5.6602952713       -1.0395205830
 C         0.3495379177        1.4464633330        0.3817656930
 C         0.5773542974        1.2797569941        1.9081761398
 C         2.0596096917        1.0979037069        2.5222390592
 C         2.7518124869       -0.3352282535        1.9445227271
 C         4.1674862397       -0.7323351620        2.3931488415
 C         2.8587476762        2.3080093286        2.2129992136
 C         2.0540195272        0.8656525995        3.9644723123
 O        -0.3469251382        1.0744363238        2.6466928681
 O         1.9672647540       -1.1001484154        1.4639385479
 C         4.6876008148       -1.8902774124        1.6415079827
 C         5.9745410293       -2.3533286788        2.3436263965
 C         7.3540586601       -2.0724976276        1.7163255970
 C         7.3535918996       -0.9731590284        0.6017186743
 C         7.3832588506       -1.3700830025       -0.8578389478
 O         5.8907864893       -2.9743800357        3.3804232041
 O         7.3552025743        0.2124427110        0.9873469787
 C         8.2491604126       -1.6850093772        2.8910745750
 C         7.7099004197       -3.4702172246        1.1747700277
 C         8.6776446100       -1.8423255750       -1.4527228270
 C         8.7362044320       -3.3239633149       -1.8061486060
 C         9.9213272087       -4.1387110039       -2.3849005032
 C         9.8581317764       -3.9226500009       -3.9465522130
 C         9.1755221017       -5.0334833111       -4.9520354700
 C        11.2914629039       -3.5290278848       -2.0190339967
 C         9.9323599050       -5.6312485433       -2.0231716797
 O         7.6613194155       -3.9015162124       -1.7629595873
 O        10.4136305290       -2.9411916794       -4.4204559996
 C        10.1500530464       -6.1740049991       -5.5163047265
 C         9.4461671735       -7.6237373770       -6.2175200005
 C         8.2370487177       -7.3863464982       -7.1849923982
 C         6.8972509967       -6.9091730769       -6.4453906882
 C         6.4148380575       -7.8158067487       -5.1826847915
 O        10.1425393974       -8.6297119458       -5.9574951907
 O         6.1402879257       -6.0226785024       -6.8888342523
 C         8.4666265966       -6.3821487482       -8.3197768892
 C         8.0834128161       -8.7839624022       -7.6772010851
 H       -13.3779655187        2.4955714913        4.6775690775
 H       -12.6461288596        3.6052500823        3.5677837230
 H       -14.3335813518        2.9702853935        3.4790215815
 H       -12.0494757723        0.5000355404       -0.7799785924
 H       -11.9586086988        2.3124863670       -1.3469275795
 H       -13.7391592409       -0.9402139303        2.1878415386
 H       -12.2287240301       -0.7068025693        1.4257928210
 H       -13.7593395942       -0.8543192765        0.5180216076
 H       -15.3277767053        0.1604945349        0.9667695323
 H       -15.5583178420        0.8656169997        2.6303053498
 H       -15.4233157188        1.9319016301        1.1612172980
 H       -10.8284445558        1.5738054714        1.5972093658
 H        -9.9967859879        0.7897056657        0.0786738843
 H        -8.1735831158        3.2425160127        2.5488646013
 H        -8.6268699440        1.7526426139        3.0796082076
 H        -9.2732837515        3.1742906878       -2.0287898116
 H        -8.5177148996        1.5844249877       -1.6771025265
 H        -7.4399667301        2.8919882456       -2.0391012657
 H        -8.0510568699        4.9776666120       -0.7512066939
 H        -8.0934084791        5.0171666175        1.0507514839
 H        -6.8130797259        4.2592055774        0.2473272989
 H        -6.6137789237        0.6258842996        3.1084999244
 H        -6.7276903214        1.9874140829        4.1951281696
 H        -4.9939355458        5.6799041947        2.0273601111
 H        -3.3236459192        6.3644980326        2.3314589018
 H        -6.5260689330        4.8851727923        3.3887224036
 H        -5.4125804983        5.3161390088        4.6031092825
 H        -6.3375048746        3.8543139125        4.9165214359
 H        -2.8648257470        2.7869151855        4.7018557128
 H        -4.3771941559        3.0396808080        5.6290702548
 H        -4.2406422077        1.7023085825        4.3475582436
 H        -3.9823581498        4.6998370471       -0.2033908625
 H        -4.0938272367        6.4400438878       -0.0809403690
 H         0.9485053898        3.0769428350       -0.8951418239
 H         0.5135271817        3.6966538736        0.5143598726
 H        -1.6754930118        5.6613722515       -3.0403336781
 H        -3.0433469517        5.9174991915       -2.0840455976
 H        -2.6335272037        4.2764820402       -2.4999643269
 H         0.0502112830        6.5772822482       -1.5998682059
 H         0.6014002873        5.7894223585       -0.1179145922
 H         0.6960845626        5.0544599769       -1.7495080893
 H         1.3295572544        1.0138570850       -0.0565474859
 H        -0.5278317640        0.9282382246        0.1757978875
 H         4.8016761323        0.1603659890        2.2064928923
 H         4.3384233235       -0.8852878671        3.4856802495
 H         3.9279975377        2.2920421158        2.5261239680
 H         2.3695000052        3.2523200997        2.4596459366
 H         2.9264541754        2.3457537943        1.0904580977
 H         2.1378528632        1.8551143999        4.4574698773
 H         1.1600016439        0.4512905283        4.5000306328
 H         2.9541440761        0.3019554613        4.2907073353
 H         3.9139244977       -2.6032094278        1.6124303158
 H         4.9795748948       -1.4002236010        0.6739401810
 H         6.4644034902       -2.0803067047       -1.0399197931
 H         7.1217566265       -0.4421783093       -1.5253106635
 H         8.0972416611       -2.3811061437        3.7008391306
 H         7.9063530109       -0.6349738142        3.0022109723
 H         9.3054204695       -1.6116280945        2.6565855642
 H         8.5897330192       -3.4352860257        0.6035308055
 H         7.7536379114       -4.1442438137        2.0350137490
 H         6.9339869294       -3.9762626199        0.6144118332
 H         9.4651577811       -1.6842930514       -0.6291790926
 H         8.9578048687       -1.1315594836       -2.2745501141
 H         8.3742913266       -5.5436119814       -4.4658571253
 H         8.7814299459       -4.4771840005       -5.8021494493
 H        11.5609825627       -3.5491018575       -0.9699868793
 H        11.3824601667       -2.5157785608       -2.2695981118
 H        12.0613797552       -4.0734867651       -2.5408679721
 H         9.9240242011       -5.6595928340       -0.9316285643
 H         9.0361133831       -6.0026582171       -2.4774463444
 H        10.8848869395       -6.0959069330       -2.3416828134
 H        10.7994909742       -5.7044402034       -6.3002927091
 H        11.0269600624       -6.4949685716       -4.9292271992
 H         7.0046111115       -7.6479221291       -4.2882563276
 H         5.2868626256       -7.6937599486       -4.8994503779
 H         6.7507440852       -8.7100385447       -5.4047471671
 H         7.5550216436       -5.9751773811       -8.7626619412
 H         9.1310977901       -6.8960979425       -8.9753257237
 H         8.9800507508       -5.5066519314       -7.8436340976
 H         7.3798229613       -9.0021275503       -8.4546697960
 H         9.0297083938       -9.1604904386       -8.1179140929
 H         7.8935024343       -9.4351046126       -6.8195142580
 Na       -2.3016323478        1.4724102822        1.5362666214
