155

 C       -12.1979057675        2.8408469656        4.0164188776
 C       -12.0567235119        1.4831317963        3.3937481515
 C       -13.2033355126        0.9691636125        2.5453122878
 C       -13.2929138536        1.7501340237        1.0921528468
 C       -12.5720599429        1.1573970541       -0.1540386357
 C       -13.0943971313       -0.6107143274        2.0949933776
 C       -14.4677764441        1.0767955696        3.3145226305
 O       -11.0187935308        0.8820612060        3.4617940016
 O       -13.8020038564        2.8505982033        1.0879128452
 C       -10.9885470648        1.0964080885        0.1110255729
 C       -10.4098957928        2.5051224127        0.4323125286
 C        -9.0563429011        3.0003952806       -0.1133002659
 C        -7.7090639546        2.4889926800        0.7345962998
 C        -7.7305384546        2.4587162183        2.1906573095
 O       -11.0124376615        3.2710456816        1.1859240256
 O        -6.7309152427        2.1128744673        0.1512340279
 C        -9.0584326322        2.7373521764       -1.6547011215
 C        -8.9156419189        4.5604381288        0.0967133728
 C        -6.5479806570        1.7245964421        2.8971282702
 C        -5.0293198000        2.3122734878        2.8429046331
 C        -4.7897326246        3.7867357195        3.4311926772
 C        -3.8040466332        4.4179398091        2.3926336836
 C        -4.2689879808        5.4066352179        1.3219658170
 C        -5.9601904004        4.7439853568        3.6607224980
 C        -3.8344251373        3.5746906003        4.7452987200
 O        -4.1322885658        1.5766708554        2.6841676807
 O        -2.5756836608        4.1953522142        2.4366472198
 C        -3.6643757746        5.2286873944       -0.0356146003
 C        -2.2439528252        5.8429099530       -0.0562805860
 C        -1.1123554436        5.1390234577       -0.9864480046
 C        -0.8174533415        3.6469270201       -0.4529701749
 C         0.5692484256        2.8828812620       -0.7293329907
 O        -2.0524235576        6.9342268183        0.3609969715
 O        -1.6991877815        3.0147668413        0.0590162359
 C        -1.7493804897        5.0008456108       -2.4285918315
 C         0.1737151965        5.9935916749       -0.8755079513
 C         0.4951748969        1.4087752353       -0.2158219142
 C         0.9895328230        1.2070375350        1.2175374402
 C         2.4186098292        1.1124460692        1.7025854647
 C         2.9440046874       -0.4587940855        1.4630014444
 C         4.2626937193       -0.8589958024        2.1058757025
 C         3.5061840667        1.9536786887        1.1017597265
 C         2.4124101526        1.2937208516        3.3130349652
 O         0.1778392756        1.0389312272        2.1276842392
 O         2.4234601097       -1.1441050668        0.6043593839
 C         4.6586516708       -2.3198151148        2.1765803031
 C         6.0351196922       -2.1716371112        2.8541546292
 C         7.1463538220       -2.3176460911        1.8438774437
 C         6.8365834240       -1.7789794823        0.4171693514
 C         6.8220986549       -2.7442541357       -0.7495727861
 O         6.1874905298       -1.9039814129        4.0402001900
 O         6.6855334065       -0.5968611975        0.2964545152
 C         8.4682436636       -1.6372460130        2.2692269667
 C         7.2795059162       -3.8904955878        1.9450831033
 C         8.2428731034       -2.8696430080       -1.2566755106
 C         8.5915479677       -4.3731237609       -1.6075225496
 C         9.9815605008       -4.5707741087       -2.5107158199
 C         9.6067778028       -3.8970505644       -3.9420904101
 C         9.0618914841       -4.6970973247       -5.1343484236
 C        11.1788356343       -3.7087546591       -1.8599226446
 C        10.5109811068       -5.9886858254       -2.5825747179
 O         7.7247825694       -5.2073723079       -1.6093690894
 O         9.5574350631       -2.6912273533       -3.9343607770
 C         9.9580945343       -5.7701896450       -6.0379170034
 C         8.9683326401       -7.0187431986       -6.2140084685
 C         7.8133389667       -7.1319380721       -7.4246976572
 C         6.3860717655       -6.8467948855       -6.8053831350
 C         5.9295351720       -7.8926147950       -5.7724848216
 O         8.9817656582       -7.8876557779       -5.4146508516
 O         5.6813299204       -5.9076963717       -7.1194775446
 C         8.3867706812       -6.2175218392       -8.5955017842
 C         7.8896005185       -8.7442625226       -7.8377025114
 H       -12.7450538795        3.0181337304        4.9897149032
 H       -11.3511937348        3.3670076785        4.0854491507
 H       -12.7939208769        3.3418313999        3.2332544541
 H       -12.9108627304        0.1333922392       -0.3542965251
 H       -12.8689639413        1.7216808868       -1.0398487997
 H       -13.4030363883       -1.0122133606        3.0655914955
 H       -12.0570038440       -0.8820824597        1.7878870070
 H       -13.8965260777       -0.6893336595        1.2926731339
 H       -15.2029749984        0.5059920839        2.8230313640
 H       -14.2371894980        0.6058179767        4.2919824521
 H       -14.7140860106        2.1321368376        3.3809396745
 H       -10.8370933755        0.4435988075        0.9492055295
 H       -10.5478538057        0.7379797567       -0.7904322161
 H        -7.8440186591        3.5256945880        2.5151075067
 H        -8.6012991122        1.9113096744        2.5918087272
 H       -10.0214304013        2.7195616864       -2.0591632093
 H        -8.6160469997        1.6985128814       -1.8855870920
 H        -8.5614812048        3.4615560766       -2.2750713302
 H        -9.3764036477        5.1368976969       -0.7265828260
 H        -9.4428629344        4.8424652085        1.0075826207
 H        -7.7564088295        4.7437812352       -0.0269198535
 H        -6.3944198122        0.8593916423        2.4152213944
 H        -6.8922479339        1.5556753212        3.9152745503
 H        -5.3886367597        5.5297749138        1.1980459727
 H        -3.8174069587        6.4560442536        1.5827740172
 H        -6.5527727583        4.8831494055        2.7234513520
 H        -5.6272092159        5.6664090724        4.1446538503
 H        -6.8244260597        4.4717927426        4.2972604681
 H        -4.5049960175        3.8323601629        5.5605758138
 H        -3.5342219322        2.5418929515        4.7041128496
 H        -3.0624064773        4.2110658230        4.5969955818
 H        -3.3731477210        4.1470244617       -0.3650023873
 H        -4.2170560187        5.8975051990       -0.7273208667
 H         0.5324786208        2.9360417821       -1.8008973324
 H         1.4587731494        3.5326441095       -0.4004423608
 H        -2.7447780557        5.5780614238       -2.3772161019
 H        -1.9235166228        4.0021713613       -2.8799230168
 H        -1.0368119602        5.4517503735       -3.1691098450
 H         0.1135603548        7.0933626048       -1.0511827748
 H         0.5887689707        5.9132490831        0.1094706023
 H         1.0331128420        5.5726507845       -1.4346543297
 H         1.1110929365        0.7538542457       -0.8289707015
 H        -0.5719847868        0.9189379149       -0.3722798725
 H         5.0463872776       -0.3922106020        1.5177020149
 H         4.2596074399       -0.4922690982        3.1493199298
 H         4.4599094255        1.4644668626        1.3800361916
 H         3.6166674271        2.8833108392        1.5274791819
 H         3.5017237535        2.1339546645        0.0426443426
 H         1.8770184765        2.2403430851        3.4568149077
 H         1.9704178889        0.4583079428        3.7955555296
 H         3.4309586774        1.4260346880        3.6906763615
 H         3.9494849069       -2.9255219650        2.6786896742
 H         4.6519567185       -2.8472858038        1.2548063487
 H         6.5797387469       -3.8468841783       -0.4736591596
 H         6.3270887692       -2.3150577202       -1.5653075250
 H         8.8922090343       -2.1692979879        3.1547483580
 H         8.0907141320       -0.6147665672        2.6697963181
 H         9.0952421126       -1.6323772605        1.3760924751
 H         8.0938907145       -4.3001609048        1.3231661923
 H         7.5207295899       -4.3071288245        2.9094767946
 H         6.3494015632       -4.2651804666        1.5048248081
 H         8.8793996414       -2.6905533198       -0.4866517218
 H         8.3557755071       -2.0089407705       -1.9361937891
 H         8.4434024154       -5.3299593656       -4.6100403960
 H         8.3237253908       -4.1736552788       -5.7802721055
 H        11.4592123652       -4.0631668620       -0.8717870330
 H        11.0300530877       -2.6124504024       -1.7646917288
 H        12.1793623154       -3.8347059894       -2.4648028376
 H        10.5869760410       -6.3444444015       -1.5572686351
 H         9.6963871446       -6.5703898821       -3.0149420458
 H        11.3864950286       -6.0915490045       -3.2382516090
 H        10.1242907870       -5.2609543284       -6.9820009804
 H        10.8056281036       -6.0919961481       -5.4780610951
 H         5.2042618685       -7.2430984483       -5.2217733746
 H         5.4377789434       -8.6481955053       -6.2579279812
 H         6.6664490336       -8.1749683658       -4.9108320662
 H         7.8063176696       -6.2912187557       -9.5300823497
 H         9.4580268453       -6.4305639395       -8.8654197684
 H         8.4033823178       -5.2171863153       -8.1755579524
 H         6.9145685934       -9.2393075126       -8.0444592976
 H         8.4316290381       -8.7790297267       -8.7573934455
 H         8.4994818281       -9.4044717738       -7.2119824961
 Na       -1.7870501509        2.0326172201        2.3483966344
