155

 C       -11.1302685484        2.4428895588        5.1754485298
 C       -11.0485915089        1.3249889557        4.1360695997
 C       -12.4279186057        0.8089738749        3.5500393272
 C       -12.8819379615        1.4964302488        2.0948729596
 C       -12.5070553635        1.0550609750        0.6175347678
 C       -12.1793542122       -0.7882899869        3.2937442074
 C       -13.7262360588        1.0877237919        4.3992797090
 O        -9.9976226538        0.8319559201        3.7667291610
 O       -13.3257341838        2.6101883519        2.1256867648
 C       -11.0103856813        1.3647444561        0.3674313403
 C       -10.5300820097        2.8005641232        0.5687111260
 C        -8.9396803117        3.0990694134       -0.0033324161
 C        -7.7250179261        2.8930318709        1.0052700599
 C        -8.0508269510        2.4313472159        2.4487603251
 O       -10.9884559976        3.6403052799        1.2667809459
 O        -6.6054360889        2.9039470197        0.7004641233
 C        -8.7019749047        2.2966410423       -1.2089600052
 C        -9.1057487169        4.6085704606       -0.6545091638
 C        -6.7355866813        1.9427287876        3.0366966702
 C        -5.4391578306        2.6331943810        2.6380819221
 C        -4.9946835248        4.1596462400        3.0498646751
 C        -4.0171668046        4.5808759681        1.9140060395
 C        -4.6250827602        5.2082529077        0.6703765644
 C        -6.2028453212        4.9876521042        3.2341605939
 C        -4.2279208571        4.1067311574        4.3866794880
 O        -4.5770134112        2.0033231982        2.0693760743
 O        -2.7456647487        4.3417059161        2.0896133891
 C        -3.7374777716        4.8171423398       -0.4827053515
 C        -2.3443727257        5.5447040590       -0.4243677272
 C        -1.1327964483        5.0193512879       -1.2383511234
 C        -0.7859909166        3.5304284988       -0.9000133963
 C         0.6126274958        2.9550577016       -1.0463584446
 O        -2.3198722361        6.6056762267        0.2420377134
 O        -1.6460642880        2.7843366557       -0.4610323634
 C        -1.6045399453        5.1039115893       -2.7211163796
 C         0.0015878609        5.9288798947       -0.8836019129
 C         0.7146999236        1.6235857451       -0.2454543656
 C         1.1792331251        1.8120311628        1.1556945731
 C         2.6982227959        1.6742853745        1.5796959770
 C         3.0549026404        0.2094986953        1.7840249005
 C         4.4243189520       -0.1979753888        2.5994267357
 C         3.5905783646        2.2059965925        0.4153166138
 C         3.0369021679        2.5038925037        2.7796535735
 O         0.3030433714        1.8099358646        2.0447129783
 O         2.3692976648       -0.7158621585        1.3844109048
 C         4.4468925470       -1.7585450343        2.8880388921
 C         5.8788050383       -2.0993012033        3.1565407334
 C         6.6522499591       -2.9214929054        2.0540877971
 C         6.5042057755       -2.7090129443        0.5154883355
 C         6.9017587275       -3.7865320795       -0.4380556345
 O         6.5586105907       -1.8895015316        4.1513415503
 O         6.1975626654       -1.6490102183        0.0857328518
 C         8.2037289829       -2.4225321594        2.2859022177
 C         6.4822389636       -4.3969900625        2.3740818334
 C         8.3224673343       -3.5400962021       -1.0537225744
 C         9.1285850189       -4.8686222612       -1.6340412273
 C        10.2756595255       -4.8874651147       -2.8340436334
 C         9.7453083211       -4.1699587185       -4.0817390556
 C         8.4257542371       -4.8464046798       -4.7416538468
 C        11.2402884372       -3.8387504054       -2.1248809162
 C        10.8644446642       -6.3759069307       -2.9601762592
 O         8.8558365922       -5.9129457747       -1.1251033971
 O        10.0810941333       -3.0573344914       -4.4671052146
 C         8.4889043047       -5.2059314505       -6.3725338547
 C         8.3001324428       -6.6725548607       -6.5328260036
 C         7.4690421253       -7.2629481806       -7.8006465750
 C         6.0041203388       -6.9747287900       -7.3735052622
 C         4.7085396962       -7.5365918595       -7.8829639433
 O         8.7763756232       -7.5320875660       -5.7679458771
 O         5.9070129373       -6.1290326415       -6.4205761982
 C         7.5394820585       -6.4544243063       -9.2073097584
 C         7.8701140893       -8.7834265272       -8.0240827908
 H       -10.6964102512        3.0966040081        4.5143360045
 H       -12.1203106330        2.9698974985        5.5566086881
 H       -10.4544534894        2.4451460009        6.0618274776
 H       -12.7835439460        0.0414527050        0.3390993757
 H       -13.0561461060        1.6545168171       -0.0402263396
 H       -12.4241714725       -1.2207907577        4.3352715681
 H       -11.1877301266       -0.9300303646        2.7950542675
 H       -13.0219111088       -1.2229258595        2.7105861723
 H       -14.5829030939        0.5859967366        3.8389050048
 H       -13.5882792881        0.7965013018        5.4801683386
 H       -13.9383640096        2.1632501465        4.3659890425
 H       -10.3972180898        0.6720873158        0.8512699851
 H       -10.8537616160        1.1703807765       -0.6817196592
 H        -8.5102967223        3.1135286185        3.2175104875
 H        -8.6705739141        1.4630808476        2.3670495869
 H        -9.4499186124        2.2990904998       -2.0526482445
 H        -8.6750526876        1.1893819687       -1.1433810752
 H        -7.7437272874        2.5347333467       -1.7706005393
 H        -9.1932075178        4.4331227400       -1.7001099571
 H        -9.9177907319        5.0594681141       -0.0722568302
 H        -8.2223606309        5.1544086590       -0.4204016888
 H        -6.5502811273        0.9364883242        2.8077392132
 H        -6.6524943450        2.0076241780        4.0678982452
 H        -5.6084806747        4.9078136015        0.5027432869
 H        -4.8350840394        6.2926064750        0.7286994497
 H        -6.7668439464        5.0582688836        2.3025020647
 H        -6.0796930299        6.0458407716        3.3143312458
 H        -6.8158757522        4.4812416227        4.0537093867
 H        -5.0047120432        4.1272814976        5.1490674482
 H        -3.6113343727        3.2066899730        4.3248898613
 H        -3.5759987752        5.0812691806        4.3890238604
 H        -3.6200035411        3.7466013007       -0.4760818047
 H        -4.2138626277        4.9972837417       -1.4720444242
 H         0.7884630208        2.8247240604       -2.0621168479
 H         1.2802879477        3.7044132051       -0.4763347823
 H        -1.5059473893        4.1983172737       -3.1580256910
 H        -1.0299928248        5.8728091020       -3.2053858185
 H        -2.6505485219        5.3335776528       -2.7611869687
 H        -0.2215277635        7.0079787407       -0.7793007686
 H         0.4317806245        5.6760691289        0.0824809988
 H         0.6897236623        5.8984268118       -1.6759190955
 H         1.4368746065        0.8715800394       -0.6659298148
 H        -0.3571140544        1.1754015375       -0.2243361699
 H         5.2987461550        0.0541850949        2.0172901246
 H         4.4402839220        0.3842485178        3.5683070523
 H         4.6305110874        2.2480261106        0.7577940870
 H         3.3276089555        3.3343244817        0.3382505375
 H         3.6504260824        1.7485993077       -0.5929192063
 H         2.5230345342        3.4835040488        2.6463752456
 H         2.5623185890        1.9982167951        3.6006532095
 H         4.1166253133        2.6964780559        2.7222186476
 H         3.8393885097       -1.9300616307        3.8544287690
 H         4.0817465135       -2.2796077314        1.9987438619
 H         6.9968159609       -4.7488987620       -0.1151487463
 H         6.2929464631       -3.9141808757       -1.2761646291
 H         8.4913464952       -2.8211736132        3.2475352860
 H         8.0800026357       -1.4226197350        2.1892654798
 H         8.8204433366       -2.7396681877        1.4594039474
 H         7.3502224022       -5.0109632630        2.0253402698
 H         6.2726351687       -4.5704772696        3.3847754421
 H         5.5698955955       -4.7778152489        1.9618133273
 H         9.0018433643       -3.0559028619       -0.4343766310
 H         8.1578023417       -2.8947480263       -1.9376084594
 H         7.9695194826       -5.7512223438       -4.2322027373
 H         7.7345529737       -3.9660369197       -4.6561328317
 H        10.7201731138       -3.2657721333       -1.3886502439
 H        11.5074042653       -3.0682014944       -2.8999448731
 H        12.0604973285       -4.3168433236       -1.6202898417
 H        11.4877764303       -6.6816617941       -2.1297264801
 H        10.0158542010       -7.1064763231       -3.1274088830
 H        11.4883041544       -6.3988101231       -3.8481103509
 H         7.8901873543       -4.5410101285       -7.0134104647
 H         9.5130799148       -5.0512200698       -6.7041625765
 H         3.8085799877       -7.0708180084       -7.4550143446
 H         4.7108264832       -7.6071198690       -9.0908973182
 H         4.9213098313       -8.5632971605       -7.7650719912
 H         7.2450212140       -6.9514496488      -10.1120538048
 H         8.5335099878       -6.0087912167       -9.3670515485
 H         6.8441759466       -5.6586254197       -9.2237663225
 H         7.1604474251       -9.1939079498       -8.7396811528
 H         8.8150549701       -8.8331080032       -8.5857129178
 H         8.1457499395       -9.4435429590       -7.2343403400
 Na       -2.1735581317        2.3222841011        1.9044891515
