155

 C       -10.6773790219        2.1584271674        5.4165139330
 C       -10.6039621709        0.8407537846        4.7146250734
 C       -12.1491319525        0.5475789036        4.2168966259
 C       -12.6618681532        1.7177985345        3.2680489848
 C       -12.3548050083        1.5298723258        1.7809845134
 C       -12.0037962235       -0.8195600240        3.3288874891
 C       -13.1628133884        0.3626032034        5.4087627143
 O        -9.5585177546        0.2586995332        4.3450822118
 O       -13.1696451958        2.7552621912        3.6602302974
 C       -10.8365712544        1.3950605164        1.2696328850
 C       -10.2889637223        2.7369471327        0.7344268815
 C        -8.8769837423        2.7033823527       -0.1674629127
 C        -7.6695543227        2.6371464306        0.7873786019
 C        -7.7335507611        2.5626989955        2.3023130145
 O       -10.9085358694        3.7679852498        0.8858614746
 O        -6.6108372493        3.0501135813        0.1870447254
 C        -8.5378300810        1.6534959671       -1.2343554823
 C        -8.8356052913        4.2001897746       -0.7498989019
 C        -6.4129132361        2.1445385983        3.0557065926
 C        -5.0865679687        2.7135719295        2.5893665571
 C        -4.7616999287        4.4176223566        2.7441910117
 C        -3.8866973557        4.8201864479        1.5201666749
 C        -4.3045806426        5.9705036709        0.6072250512
 C        -6.0679226032        5.2750713155        3.0240251589
 C        -3.7217379409        4.5425463419        3.9727127808
 O        -4.2113190287        2.0175792291        2.0777408551
 O        -2.8054589734        4.3419942695        1.2696712442
 C        -3.5803171123        5.6858946255       -0.6914975825
 C        -2.0219510290        5.8845181878       -0.6491892848
 C        -1.1439613992        5.0204882943       -1.6892419420
 C        -0.9361765221        3.5957743025       -1.0231591023
 C         0.4482607656        2.8310162591       -1.1623344544
 O        -1.5533265314        6.7346241380        0.1137991360
 O        -1.9305336341        2.9157088942       -0.6904317785
 C        -1.8487534913        4.7247575347       -3.0379558744
 C         0.1782370020        5.7428894664       -1.9479209841
 C         0.5405896669        1.6791720222       -0.0512471175
 C         1.0631577696        2.1508163252        1.3213942306
 C         2.4829948033        1.8877651407        1.7307536207
 C         2.7455254400        0.3134418985        1.9213100555
 C         4.1974782166       -0.1557420035        2.0018132783
 C         3.3928063891        2.4676252237        0.5635834048
 C         2.8432573545        2.6347961798        3.0716452385
 O         0.2813718521        2.7423816252        2.0443094946
 O         1.8136226083       -0.3960544051        2.2206290943
 C         4.2818384663       -1.6048023775        2.4393287514
 C         5.7672430326       -1.8794892555        2.7214947323
 C         6.3720386654       -3.2607867152        2.3052992670
 C         6.5385560630       -3.1696302024        0.6712946482
 C         7.3455595874       -4.4440759133        0.0995776198
 O         6.3673191231       -0.9465234519        3.2879354556
 O         6.4679353482       -2.1402768287        0.0320547349
 C         7.7797768019       -3.4148854485        2.8799778448
 C         5.4678648266       -4.5440503973        2.6398401531
 C         8.1572910467       -3.9052837655       -1.1221667070
 C         9.0719315721       -4.9693927213       -1.5918999805
 C        10.2597927645       -4.7672491152       -2.7476792663
 C         9.5377574604       -4.6092712553       -4.1127198630
 C         8.1532867803       -5.4727010327       -4.3595360064
 C        11.1851382787       -3.4927831151       -2.5754686882
 C        11.1873668518       -6.0737421597       -2.7138236849
 O         9.0161106139       -6.0910870941       -1.2169874336
 O         9.8441711899       -3.7387170793       -4.8929155497
 C         7.6528693237       -5.3505388607       -5.7871827255
 C         7.8559532507       -6.6735789503       -6.6245770876
 C         7.1070078917       -7.1314655717       -7.8851054347
 C         5.4575959949       -7.0201123380       -7.7170387186
 C         4.6233999255       -6.6600984192       -8.8553738447
 O         8.8872389324       -7.2642739845       -6.2830419704
 O         5.1651105724       -6.9411972228       -6.5705904289
 C         7.4427360361       -6.1343283592       -8.9544941526
 C         7.3072997881       -8.5236025354       -8.4860022876
 H       -11.5590835708        2.1900561156        5.8658240238
 H        -9.9549526287        2.1692664921        6.2794325251
 H       -10.4452839754        3.0744168050        4.9190463173
 H       -12.9721301709        0.9378394094        1.1923959990
 H       -12.4511101608        2.5698144928        1.5467340975
 H       -11.8864669204       -1.6031271051        4.1480059059
 H       -11.0045983769       -0.9117599981        2.8544645531
 H       -13.0547968203       -1.1042924935        2.8999106105
 H       -14.0673180464       -0.0073876709        4.9784197833
 H       -12.6511941624       -0.2611248445        6.2208592434
 H       -13.4047244171        1.3108051055        5.9774475023
 H       -10.0978449898        1.0895077486        1.9605139459
 H       -10.8316036868        0.7367540876        0.4767355895
 H        -8.0363473076        3.5886861187        2.7027879523
 H        -8.4881993334        1.8799952048        2.6656660425
 H        -8.9675999214        1.6644918263       -2.1860597316
 H        -8.6535071298        0.5675589350       -0.9112181717
 H        -7.5417432588        1.7433806559       -1.5926691962
 H        -9.8292529849        4.4692304878       -1.0748975329
 H        -8.6530985539        4.8901774183        0.0877690373
 H        -8.0805014229        4.1338435299       -1.6363176927
 H        -6.1303056075        1.1170895933        3.0436803213
 H        -6.6942746906        2.4132841603        4.1679278422
 H        -5.3812294921        6.2111724068        0.3667351576
 H        -4.1222390978        7.0711534844        0.9007972060
 H        -6.7770096252        4.8914122387        2.3047367475
 H        -5.8026164323        6.3666107176        3.0373520687
 H        -6.6403415759        5.2141846213        3.9665843350
 H        -3.5300732099        3.5350022342        4.3638784569
 H        -2.7779068696        4.7360542384        3.5095654999
 H        -4.1154854549        5.1787023297        4.7313779966
 H        -3.8592383625        4.6591781585       -1.1985415431
 H        -3.9571615629        6.4355042937       -1.4488831668
 H         0.6060356778        2.3893704395       -2.2211977209
 H         1.3039713692        3.4648805883       -1.0612852605
 H        -1.0892001210        4.9538938933       -3.7745978737
 H        -2.7643262325        5.2420054384       -3.2837291389
 H        -1.9976870907        3.6965085772       -3.1667881559
 H         0.0768367250        6.8043093508       -2.0507649573
 H         0.8102269615        5.5214374204       -1.1078834837
 H         0.7157734319        5.1439702399       -2.7015980000
 H         1.1446044691        0.9560220266       -0.4819045511
 H        -0.5363707429        1.3771602836        0.1432841239
 H         4.7931460120        0.0256485375        1.0659462177
 H         4.6765949420        0.5023082890        2.7122427632
 H         4.4215301257        2.3442418948        1.0172461807
 H         3.2243327147        3.4920114220        0.3912386056
 H         3.3021531505        2.0524804120       -0.4734571037
 H         2.5647201725        3.6370060668        2.8211124622
 H         2.2182847595        2.2167192041        3.7904697407
 H         3.8408784173        2.4442587725        3.3213816543
 H         3.8356367711       -1.6827111355        3.3768966996
 H         3.9888294133       -2.2791516347        1.6213935161
 H         8.0464308698       -4.8945564031        0.9752892972
 H         6.6376348373       -5.3147100695       -0.1257016206
 H         7.4553160940       -3.7579702927        3.8530510574
 H         8.2511464183       -2.3970436040        2.8875562599
 H         8.2610213716       -4.2684036673        2.4148505696
 H         4.9113893408       -5.0893009008        1.8977448319
 H         6.1727371304       -5.2771807592        3.0750408295
 H         4.7228180768       -4.3136256935        3.4230237595
 H         8.7376594348       -3.1176144250       -0.7734044783
 H         7.4430740498       -3.4437484913       -1.8745907585
 H         8.4055189854       -6.4472517106       -4.1933946494
 H         7.3324235864       -5.2513216664       -3.6793418587
 H        11.4655858622       -3.2967316221       -1.5416315433
 H        10.7941336236       -2.6684189661       -3.1785404572
 H        12.0795729136       -3.7872356607       -3.2399659202
 H        11.5814107140       -6.2190194578       -1.7139116405
 H        10.6338132665       -6.9227920127       -2.9313342892
 H        11.8114507840       -6.1673826665       -3.6202016693
 H         6.5882243100       -5.2000590118       -5.7753396684
 H         7.9829474354       -4.4214751081       -6.2930540075
 H         5.1782755294       -5.7372855840       -8.9977717553
 H         4.9388189188       -7.4754586990       -9.6711270005
 H         3.5793731640       -6.5111436310       -8.8205370546
 H         7.2451511058       -5.1634550302       -8.5831381246
 H         6.8895861883       -6.1424792756       -9.8756341969
 H         8.4563192237       -6.2245882609       -9.2938557986
 H         8.2984070964       -8.9244287786       -8.1109012944
 H         6.5899928461       -9.3075546665       -8.5594314882
 H         7.6518424646       -8.3577428665       -9.4994552213
 Na       -2.0290383114        2.1824677151        1.6128227808
