155

 C       -10.2799204892        1.8342853925        6.0393858942
 C       -10.3075552825        0.5462325980        5.0486274849
 C       -11.6988994395        0.3291110749        4.4779386057
 C       -12.3336182476        1.7333032928        3.6957414720
 C       -12.1043087256        1.9839592733        2.2036032054
 C       -11.6824703284       -0.8951788573        3.7383421684
 C       -12.6085928784        0.1761808273        5.7094619107
 O        -9.3230228492        0.0970893144        4.4830057307
 O       -13.0696670305        2.3773210635        4.3569110762
 C       -10.7058618426        1.7284328620        1.6207680212
 C       -10.1189201613        2.9213299100        0.8138343625
 C        -8.9078961437        2.4885605322       -0.0720800814
 C        -7.5323308413        2.4929613174        0.6858499328
 C        -7.5820895772        2.8935970243        2.2580387190
 O       -10.3837360730        4.0813069563        1.0824256448
 O        -6.5563696031        2.1649036939       -0.0262583591
 C        -9.0192629310        1.1137746575       -0.7187979989
 C        -8.7270546054        3.6177355585       -1.1585249667
 C        -6.3596863330        2.7120107355        3.1190569225
 C        -4.9837566752        3.1385870590        2.5056167157
 C        -4.4643999592        4.5683141850        2.6333445805
 C        -3.5752361084        5.1189159623        1.4820869850
 C        -3.9511220163        6.2169935202        0.4888565577
 C        -5.5540740593        5.6370330220        2.8938840312
 C        -3.6170401356        4.4683025089        3.9861116374
 O        -4.3336229945        2.1786095287        2.0148244913
 O        -2.3972082850        4.7768744723        1.4835443815
 C        -3.5125838070        6.1268380307       -0.9133147193
 C        -1.9029542452        5.9507702851       -1.0486265516
 C        -1.3325185056        4.9880316713       -2.0528721984
 C        -1.0673278987        3.6229326563       -1.2987257980
 C         0.3774602689        3.1796187190       -1.1517202668
 O        -1.1252658204        6.6278235649       -0.3860233409
 O        -2.0300910024        3.0204630937       -0.7887729142
 C        -2.2001183905        4.5413267949       -3.2805275600
 C         0.1146643088        5.5503397878       -2.5979877734
 C         0.6286022929        1.8455621530       -0.2921895871
 C         0.8358292794        2.0120859675        1.2391739925
 C         2.2786816771        2.2288588805        1.8247635799
 C         2.5884444988        0.6151920099        2.1303956169
 C         4.0045982251        0.0243780198        1.7245804614
 C         3.3654251128        2.8308315529        0.9230365726
 C         2.3116706350        2.9934126809        3.2672482340
 O        -0.0867362961        2.0684272911        2.0252878414
 O         1.8164354163       -0.2078841457        2.5035847190
 C         4.1671475323       -1.4149573115        2.2574982129
 C         5.7108198185       -1.8136418183        2.5814573089
 C         6.0886728645       -3.2660422441        2.2475718779
 C         6.7359984944       -3.3357179813        0.7703667688
 C         7.4174587430       -4.7233979589        0.3104917356
 O         6.5034313286       -0.9536321860        2.8774679754
 O         6.4940762055       -2.5362168138       -0.0529988089
 C         7.2229547738       -3.7088335990        3.3202415804
 C         5.0224188462       -4.3444489242        2.3769176754
 C         8.5392481414       -4.0832876666       -0.7013527052
 C         9.3156722405       -5.1876635308       -1.6253826312
 C        10.0179882373       -4.8403164345       -2.9141541646
 C         9.0191495451       -5.0497780536       -4.1630624093
 C         7.8499327525       -6.0435094867       -4.0045771768
 C        10.6038452961       -3.3488999038       -3.0191614842
 C        11.1307186439       -5.8629060521       -3.2933930439
 O         9.2603948394       -6.3274854303       -1.2982912619
 O         9.2683839932       -4.4244611881       -5.1775750432
 C         7.0689037881       -6.1893027531       -5.2438077671
 C         7.7294812093       -6.9344484457       -6.5290355033
 C         6.9437593623       -6.8545134950       -7.9896577339
 C         5.4520119034       -6.7725177920       -7.8204299993
 C         4.7132821019       -5.8232547949       -8.8202338020
 O         8.8290859358       -7.4230950925       -6.3324853445
 O         4.9808136882       -7.3403138128       -6.9334960422
 C         7.6124232898       -5.4990260247       -8.5715701499
 C         7.1633030140       -8.0702497972       -8.9193465270
 H       -10.2893310809        1.2398642860        6.9134188693
 H        -9.4211615780        2.5748866036        6.0755722768
 H       -11.1800387222        2.3304808250        6.1375453546
 H       -12.8323416884        1.3674483040        1.7612360625
 H       -12.3991162023        3.0059885628        2.0219201949
 H       -11.1952224394       -1.8601969252        4.2618279907
 H       -10.9793821228       -0.7584853684        2.8042901279
 H       -12.7156576282       -1.1697021921        3.3505965663
 H       -13.5948620813       -0.1183251464        5.3695828549
 H       -12.3358695317       -0.7090756397        6.3690150184
 H       -12.7433488552        1.1292958259        6.2106152921
 H       -10.0566320076        1.5244649419        2.4181868369
 H       -10.7683725116        0.9227270639        1.0022914059
 H        -8.1302544187        3.8960166643        2.1912600944
 H        -8.4124751302        2.2865449013        2.6289779574
 H       -10.0218907184        0.8045353830       -0.9871951307
 H        -8.4211455766        0.2994293220       -0.2583640400
 H        -8.5441953702        0.9407860854       -1.6529288501
 H        -9.5939953371        3.5277407310       -1.7848998797
 H        -8.9787269655        4.5487606878       -0.5692593455
 H        -7.7477236770        3.5631426193       -1.5941625941
 H        -6.1926713869        1.6206266949        3.2018012128
 H        -6.2497090300        3.2006740870        4.0739276134
 H        -5.0090142463        6.4998985927        0.4439273210
 H        -3.5065352386        7.2565400614        0.8570943425
 H        -6.2644306912        5.7315587773        2.0734084924
 H        -5.0762997804        6.5587988524        3.2855699422
 H        -5.9918047856        5.2605079520        3.8978688451
 H        -2.7342362715        3.8613477586        3.8549269702
 H        -3.4069812405        5.4962880777        4.3686137248
 H        -4.3207799310        3.8733232165        4.6912253923
 H        -4.1276726295        5.3167270864       -1.4165477070
 H        -3.7018557056        7.1196733159       -1.3556973955
 H         0.8551280878        3.1490501890       -2.1734159965
 H         0.9773633956        3.9632575349       -0.7295156751
 H        -1.8150215893        3.6720136015       -3.6173524744
 H        -2.0337420432        5.1402546516       -4.1488353614
 H        -3.2329043080        4.5879999165       -3.1156120371
 H        -0.2290754360        6.3869996091       -3.2181414252
 H         0.7286105476        5.7728776795       -1.7509000177
 H         0.7233651333        4.8447300795       -3.1951816954
 H         1.4932733132        1.3328345226       -0.6894374932
 H        -0.3122015519        1.2426789897       -0.5990189416
 H         4.1192646293        0.0355497406        0.5948509904
 H         4.8128198099        0.6609550534        2.1111579312
 H         4.3324836944        2.4977736737        1.4044988358
 H         3.3016431110        3.9295771243        0.7891272087
 H         3.4175333157        2.2208017493       -0.0283530138
 H         2.1793247933        4.1011321444        3.0338514042
 H         1.5334687014        2.4775426497        3.8375234731
 H         3.3339203318        2.7654692084        3.6682188625
 H         3.5455339450       -1.6291916574        3.1238751953
 H         3.8251927714       -2.1518595560        1.4850745934
 H         7.7310381629       -5.3128291402        1.2331893652
 H         6.5770039171       -5.1780443347       -0.2318285425
 H         6.8437471401       -3.5190736864        4.2797243807
 H         7.9323141415       -2.9798437132        3.1581868322
 H         7.4794613512       -4.7171182301        3.0547781443
 H         4.1011462591       -3.9772004236        1.9325087610
 H         5.2854156572       -5.1091224784        1.7045787923
 H         4.7492851976       -4.6718441029        3.3374749869
 H         9.1899737933       -3.5774923873       -0.1135242992
 H         8.1162561897       -3.3292185906       -1.4034559456
 H         8.3107402594       -6.9851312782       -3.8843087528
 H         7.1637514989       -5.8604358076       -3.1087936506
 H        11.3766787708       -3.2501053521       -2.3478987094
 H         9.7886211689       -2.6088260159       -3.0067562619
 H        11.0939448731       -3.3767209895       -3.9856322703
 H        11.9091553623       -5.8273926576       -2.5720004125
 H        10.8843878561       -6.9946919489       -3.3598440898
 H        11.5158186234       -5.5597111070       -4.2546118997
 H         6.0588306456       -6.5333951209       -5.0756917923
 H         6.9598281989       -5.1726684345       -5.6454421409
 H         5.4654254621       -5.0969300219       -9.2737185598
 H         4.4562769194       -6.4938126120       -9.7798414558
 H         3.9847513051       -5.1707254935       -8.4208651829
 H         7.8567642608       -4.7682881717       -7.8090076240
 H         7.0051766621       -4.8128471004       -9.2106276525
 H         8.5622543901       -5.7298726585       -9.0260939573
 H         8.2150529885       -8.1204926963       -9.2948551020
 H         6.7797803128       -8.9385566487       -8.4273026325
 H         6.5703355578       -8.0838895563       -9.8138471235
 Na       -2.1678230204        2.4672782821        1.4096149464
