155

 C         4.5936686914       -7.3262139800        7.2196031955
 C         3.3145658555       -6.6991038261        6.6341983524
 C         2.1609586090       -6.4532526625        7.7212790637
 C         1.5939399271       -5.0129361425        7.5765163618
 C         0.5905999483       -4.6724046426        6.4590010433
 C         1.0538559054       -7.4995805911        7.3355804567
 C         2.6666807505       -6.6498370164        9.1718982119
 O         3.2113286642       -6.4694787137        5.4469692446
 O         1.8945037539       -4.1259485683        8.3587805519
 C         0.1614088768       -3.1296823105        6.5486201834
 C         1.3563273738       -2.2293831902        6.1676920812
 C         1.4430381274       -0.7203391873        6.6501615439
 C         0.3631818212        0.0205698917        5.8776377446
 C         0.6651938025        0.4608272653        4.3986863745
 O         2.2599411160       -2.6563620618        5.4759785997
 O        -0.6300237343        0.5524097429        6.3906200353
 C         1.1526749100       -0.7328117771        8.1917648695
 C         2.8151412869       -0.0349314164        6.3515573040
 C        -0.7384128661        0.9958623569        3.7563642670
 C        -0.6287159484        1.3792890135        2.2566297393
 C        -1.0500686710        2.8538278870        1.7904470853
 C         0.0448785334        3.3159607985        0.7173652278
 C         1.1192568822        4.1911089737        1.2634136794
 C        -2.4959088019        2.8081188265        1.0255102907
 C        -1.1709247349        3.8295910553        2.9363253276
 O        -0.0976039700        0.6550609437        1.4243744480
 O         0.0468024240        2.9234195149       -0.4174544014
 C         2.3683457152        4.3226484492        0.3767502115
 C         3.6550332572        3.6785618772        0.8920662775
 C         4.7403428734        3.1787936402       -0.1335223822
 C         4.5525381497        1.6652021795       -0.3914227702
 C         4.4068178303        0.6732465876        0.8732739980
 O         3.8285100199        3.5904152278        2.0832785736
 O         4.4070831434        1.3035261736       -1.5661488032
 C         4.4876067447        3.8620718665       -1.5010031523
 C         6.1486759191        3.4535605446        0.4380540487
 C         4.1003698264       -0.7316921343        0.3620953899
 C         2.8649301555       -0.9683816860       -0.5959923731
 C         2.8807459945       -2.0797145801       -1.7165182898
 C         1.8008669359       -1.5569290861       -2.7764991852
 C         2.3871453845       -0.8996453029       -4.0113857070
 C         4.3541215027       -2.3144442372       -2.2252167524
 C         2.4809534502       -3.4504794820       -0.9950692050
 O         1.7819471595       -0.4610733733       -0.3226938684
 O         0.6086617441       -1.7518912318       -2.6923193182
 C         1.3034221708       -0.2886088473       -4.8869903314
 C         0.6527390478        0.8879051407       -4.1147068636
 C        -0.9848659446        1.4153356850       -4.2897938783
 C        -1.8147508048        0.1825160967       -3.6061289761
 C        -2.4561628451       -0.8669379643       -4.5632317090
 O         1.2930094400        1.4110395740       -3.2360349076
 O        -1.8000933753       -0.0568071271       -2.4191183537
 C        -1.1364230538        2.5867395301       -3.3390404670
 C        -1.1886218724        1.6679542407       -5.7415219756
 C        -3.4540863652       -1.8369468335       -3.9538529689
 C        -4.4027708404       -2.3978868548       -5.0832493356
 C        -5.9738481142       -2.1006395125       -5.0276595673
 C        -6.3208447738       -0.6069104492       -4.6096109181
 C        -5.9303858232        0.5361756791       -5.6674996336
 C        -6.7793197169       -2.4073434671       -6.3196563887
 C        -6.4596278655       -2.9784787558       -3.9114654536
 O        -3.9240017663       -2.9344774066       -6.0351721706
 O        -6.7766792681       -0.3427923435       -3.5234059406
 C        -6.1908709293        1.8725759974       -5.0893077102
 C        -5.0282373503        2.8246823489       -5.2186602192
 C        -5.2888362085        4.4879866485       -5.1642811526
 C        -6.6838307366        4.7095248758       -5.7604623436
 C        -6.7829205958        4.6833503067       -7.3114404602
 O        -3.9266704834        2.5267972806       -5.5823251510
 O        -7.6971487035        4.9567355487       -5.1109671263
 C        -5.3090135761        4.9335146025       -3.7500513384
 C        -4.1740143363        5.2292021621       -6.0273921858
 H         4.3468112593       -7.8248529613        8.1377414949
 H         5.0542303125       -7.8138937945        6.3214450354
 H         5.1693873879       -6.4189352307        7.5351918721
 H         0.9981328439       -4.9443196945        5.4230882763
 H        -0.3975093879       -5.1500517155        6.6755921781
 H         0.7100872246       -7.4550521820        6.2518572817
 H         0.2890865190       -7.6007151952        8.0550615338
 H         1.4443134941       -8.5791785297        7.3354123073
 H         3.5965807247       -5.9858313010        9.2382587173
 H         1.9959433360       -6.3703714139        9.9880463315
 H         3.0720282991       -7.6285616610        9.4966693833
 H        -0.6679163977       -3.1747798193        5.8596797800
 H        -0.1767584065       -2.9099388501        7.5699459844
 H         1.2286927150        1.3802711489        4.4803437381
 H         1.0777953173       -0.3143091487        3.7230804220
 H         1.1427356365        0.3190303805        8.5396498582
 H         2.0559796315       -1.1119839487        8.7295924808
 H         0.2892310802       -1.2902689638        8.2566355515
 H         3.6081134373       -0.7650740907        6.5876004155
 H         2.7619373067        0.3380281649        5.3344515753
 H         2.8559080628        0.8453417863        6.9852607617
 H        -1.1115711268        1.8380688933        4.3762472231
 H        -1.4907456041        0.1922880169        3.7351022851
 H         0.6786318894        5.0796642894        1.6162512588
 H         1.4581812252        3.8082343160        2.2402617026
 H        -2.2089967229        2.4989263692       -0.0093873606
 H        -2.8563637467        3.8542745460        1.0140986894
 H        -3.0730076910        2.1425362118        1.6118817299
 H        -1.9808798261        3.8666163035        3.6139600991
 H        -0.2960226174        3.8428819632        3.5854600308
 H        -1.2489631526        4.7879210203        2.5561077104
 H         2.1571250687        3.8902039894       -0.5677943615
 H         2.7132870494        5.3000282794        0.0497965494
 H         5.2885575940        0.7736526874        1.5007735473
 H         3.5986247257        1.1633925015        1.4718982444
 H         3.6109966101        3.4143365376       -2.0571641872
 H         5.3684977845        3.8121409178       -2.1152316499
 H         4.2160801446        4.9436940502       -1.4327682516
 H         6.1403594981        4.4656616526        0.7434956157
 H         6.3139358012        2.8537198719        1.3560780655
 H         6.9494992292        3.2265569617       -0.2799654744
 H         3.9822552477       -1.4376506388        1.2532644193
 H         4.9168759479       -1.1257367243       -0.1587694015
 H         3.2083982699       -0.1745176763       -3.7631804888
 H         2.9431300258       -1.7189503585       -4.5566642334
 H         4.8364860750       -1.3978537956       -2.6453460747
 H         4.3522352196       -3.0458659367       -3.0049377351
 H         4.9835482648       -2.6646907779       -1.3723419819
 H         2.4414781177       -4.2725855599       -1.6357060835
 H         3.2469737047       -3.7533741552       -0.2431558973
 H         1.5598729935       -3.3808281093       -0.4518490373
 H         1.6932019834        0.1489303274       -5.7756656729
 H         0.5071848861       -1.0183366903       -4.9742250621
 H        -2.8418207203       -0.3406154292       -5.4671516814
 H        -1.5381126689       -1.3375100792       -4.8039452061
 H        -0.5359261937        2.5480258055       -2.4653999966
 H        -2.1177420734        2.8514581037       -3.1298393870
 H        -0.6781154912        3.4214387041       -3.8576480611
 H        -2.0264654441        1.2741073409       -6.3019500150
 H        -0.9565578145        2.8145292733       -5.8533764488
 H        -0.3493469337        1.2322650179       -6.2453980064
 H        -4.0475846551       -1.4583889188       -3.1822664012
 H        -2.8387359331       -2.5870065596       -3.4932593230
 H        -4.8287137109        0.3701940771       -5.9271630475
 H        -6.3307796798        0.3534547137       -6.6435578759
 H        -6.2381073034       -2.2953613116       -7.2623482864
 H        -7.6621356915       -1.7298794882       -6.4014101236
 H        -7.1063477842       -3.4783931689       -6.3000944492
 H        -6.9204724557       -2.5345908949       -3.0343530879
 H        -7.2897701999       -3.6408086530       -4.3494095394
 H        -5.5818987002       -3.6025951776       -3.4896805533
 H        -7.0791751807        2.2976168489       -5.4637411095
 H        -6.5435487204        1.8184085523       -4.0407215629
 H        -6.9869411191        5.6261249719       -7.8295877497
 H        -5.9334504375        4.2111617679       -7.8225693950
 H        -7.6171189332        4.0535679384       -7.4553939748
 H        -4.4232947944        4.4317727117       -3.2454978270
 H        -6.2205997431        4.6172915799       -3.3128968612
 H        -5.1243410798        6.0296211033       -3.7693102527
 H        -4.4285795675        6.2898183790       -6.2689472279
 H        -3.1617749730        5.3946874152       -5.6094033186
 H        -4.0946831851        4.6243676529       -6.9994055216
 Na       -0.0205309038        0.5456599678       -1.0182653930
