155

 C        -8.6821365554       -0.1818063618        7.0101662535
 C        -9.2484998045        0.3225966952        5.6392103648
 C       -10.8716927794        0.2410743588        5.5821427475
 C       -11.4870914927        1.6450145240        5.0414892261
 C       -10.9147938561        2.5145965887        3.8766597544
 C       -11.0170157922       -0.8162364004        4.4486649544
 C       -11.5729641340       -0.1328187984        6.8949449844
 O        -8.5995861495        0.8459783996        4.7976644682
 O       -12.4990268560        2.0809727542        5.6210124418
 C       -10.4922291854        1.5977015264        2.6653453971
 C        -9.9800183611        2.4575053029        1.4924330949
 C        -8.8560575734        1.9714969407        0.5487625805
 C        -7.6479225796        2.3992229229        1.4566622278
 C        -7.1784133722        3.7731471521        1.1581770125
 O       -10.5508986786        3.5303566364        1.3441158205
 O        -7.1272867601        1.6784232566        2.3281589258
 C        -9.0126920359        0.4345718041        0.3378447479
 C        -9.0080953783        2.6772243091       -0.8177723329
 C        -6.2709274678        4.3978336304        2.2134700625
 C        -4.8413474447        4.0714267608        1.8264117653
 C        -3.5624844808        4.9879337980        2.3931613200
 C        -2.8091299764        5.3666403944        1.0887149486
 C        -3.4636615248        6.4017895388        0.0181778032
 C        -4.1930442817        6.2905437430        3.1222811203
 C        -2.9256674595        4.1062075549        3.4983109972
 O        -4.4823023813        3.1407220799        1.1916694463
 O        -1.7246883716        5.0030046951        0.7525534482
 C        -3.4141328184        5.9471743004       -1.4401584546
 C        -1.9664756270        6.1017745045       -2.0134175038
 C        -1.2196164433        4.7479898517       -2.7622918538
 C        -0.6836854086        3.8477997877       -1.6710680604
 C         0.6272161825        3.9515308024       -1.0842447296
 O        -1.2620266838        7.0995033879       -2.0010281721
 O        -1.5564379306        3.1443998890       -1.1196497830
 C        -2.3202375109        3.9522197907       -3.5767564656
 C        -0.2423178195        5.3320614456       -3.7612750729
 C         1.1956131306        2.6140201257       -0.4785934414
 C         1.0524903141        2.4332213015        1.1072893827
 C         2.3559290008        2.1393779537        1.9641434152
 C         2.6767456036        0.5534808382        1.7998536369
 C         4.1005718797        0.1330469693        1.7343818920
 C         3.5917766102        2.9678548245        1.5499787651
 C         2.0215512988        2.3296154411        3.4630135896
 O        -0.0389212453        2.2805436109        1.6298122201
 O         1.7837390591       -0.2575613469        1.7203510946
 C         4.1258390662       -1.4074338993        1.6155402151
 C         5.4895709017       -1.9911010970        1.9222534716
 C         5.6476019587       -3.5893150710        1.6523541348
 C         6.5771769025       -3.5489620455        0.4800372585
 C         8.1264884328       -3.2849698069        0.3645898491
 O         6.4872346954       -1.3475461936        2.1645158293
 O         5.9799934948       -3.4476988184       -0.6099841357
 C         6.3987410708       -4.1799636853        2.9702948776
 C         4.3273843876       -4.2613561929        1.2392663028
 C         8.5695785552       -3.5899150262       -1.1602110096
 C         8.7038261937       -5.0801459317       -1.4238571122
 C         9.1206053156       -5.3822520728       -2.8872939673
 C         7.7446822927       -5.9454331290       -3.5269583220
 C         7.3660273639       -7.2845728147       -4.0589022846
 C         9.3463830694       -4.1749896141       -3.9290701725
 C        10.2239244042       -6.4060721815       -2.8739072156
 O         8.4972320363       -6.0218738183       -0.5625534713
 O         6.9116901619       -5.0540205337       -3.5853888109
 C         6.2317145426       -6.9589717277       -5.3361703434
 C         6.9713933695       -7.0324711621       -6.6066622853
 C         6.7606920604       -6.0418265167       -7.7692499998
 C         5.2091327486       -6.2286240914       -8.2454803128
 C         4.5613956033       -5.2176779678       -9.1656604864
 O         7.7309200308       -7.9614758072       -6.7005995001
 O         4.5665787936       -7.0822439009       -7.6961665688
 C         7.1443662454       -4.5634184985       -7.2142298993
 C         7.5438621224       -6.5362892500       -9.0118162051
 H        -8.7521261552       -1.2057065530        7.2725369325
 H        -7.5881928786       -0.1844418272        6.8938592653
 H        -8.9247612463        0.5025999369        7.9184838469
 H       -11.6803482623        3.3490508645        3.7051351463
 H        -9.9916060269        3.0651928644        4.2241857918
 H       -10.9718085602       -1.7743771029        4.7468108211
 H       -10.2136905207       -0.8417078786        3.8542816961
 H       -11.9133611747       -0.7722057496        3.9068100435
 H       -12.6359883197        0.2671480887        6.8918236881
 H       -11.3506919399       -1.1057423741        7.2657943379
 H       -11.0470471682        0.4231491670        7.7167386267
 H        -9.5287255384        1.1674327446        2.9234866908
 H       -11.1337336567        0.6261117363        2.4509386406
 H        -6.6250688117        3.9346741069        0.2451420887
 H        -8.0613628644        4.4022065340        1.1894521091
 H        -9.9366799511        0.2704517239       -0.2328844971
 H        -9.0702303399       -0.1968072940        1.1644991090
 H        -8.2643547901        0.0150257547       -0.3470056444
 H       -10.0651352612        2.7999541285       -1.0677307620
 H        -8.4344431824        3.5670420348       -0.7814133653
 H        -8.5808370219        1.9009308409       -1.4986547046
 H        -6.4589080659        3.7716058367        3.0243658567
 H        -6.4827312135        5.3810865034        2.7062089846
 H        -4.4466551993        6.5657545132        0.3339098164
 H        -2.7980497541        7.2166317601        0.0788083512
 H        -3.4919452500        7.1711952722        3.0498110003
 H        -4.5220512755        6.0255330362        4.1385042225
 H        -5.0098478302        6.7379956238        2.6462179371
 H        -2.3999886012        3.1231048489        3.2673426572
 H        -2.0723498429        4.5384285935        4.0861145145
 H        -3.7436524566        3.8836773959        4.1011258930
 H        -3.7342316126        4.9563119789       -1.5982940258
 H        -4.0017139778        6.5065483573       -2.1728257252
 H         1.2347402885        4.2173726387       -1.8870486731
 H         0.5531305872        4.7483175639       -0.3337438440
 H        -2.1210716698        3.8264137892       -4.7224246724
 H        -3.3620025418        4.2928633897       -3.3386705337
 H        -2.5038215859        3.0000413360       -3.0604733257
 H        -0.8494636196        5.9295143309       -4.4643492156
 H         0.4739569384        6.0614843926       -3.3067891252
 H         0.3207656549        4.5696337999       -4.2610211400
 H         2.2608269368        2.5309316356       -0.8079271087
 H         0.6338705077        1.7708927069       -0.8786336522
 H         4.6456325730        0.6552928870        0.9428451509
 H         4.6458222256        0.4275418386        2.6366436671
 H         4.3915241095        2.6974356820        2.1658195773
 H         3.3592690688        4.0629086419        1.4724743625
 H         3.8925670703        2.8359651609        0.5489576948
 H         1.3446112846        3.1346201702        3.5681419356
 H         1.6549969521        1.3912314054        3.8737762503
 H         2.9185250664        2.4784996722        4.0276108196
 H         3.1939776111       -1.9514601246        2.0258900769
 H         4.0590880054       -1.6587112736        0.5234101593
 H         8.3438586211       -2.3593952191        0.7620220169
 H         8.6388319382       -4.0660392589        0.9570058618
 H         5.6249973753       -4.3605270692        3.7984746134
 H         7.0354547430       -3.2644526218        3.2088480754
 H         6.9248604494       -5.0336336001        2.5046969623
 H         3.8883370790       -4.6810748804        2.1565117094
 H         3.6036636859       -3.6140281544        0.7553942071
 H         4.4785584888       -5.1411972584        0.6213757532
 H         9.5147190581       -3.1162230939       -1.4359875137
 H         7.7312498156       -3.2392375260       -1.7638313203
 H         8.2500566069       -7.9171310115       -4.3261351679
 H         6.7675717414       -7.8253692882       -3.3028951295
 H        10.4662061657       -3.8503266515       -3.8790331087
 H         8.5320759592       -3.4466166186       -3.8046733998
 H         9.2197000018       -4.5979076975       -4.9279915998
 H        11.1530168634       -6.0502045222       -2.3408078498
 H         9.9467458961       -7.1709080220       -2.2758531259
 H        10.4684253227       -6.9046415543       -3.8409446202
 H         5.6289427131       -7.8784654652       -5.2385045034
 H         5.5878588168       -6.1143982992       -5.1897953859
 H         4.4390774870       -5.4958017256      -10.2058930366
 H         3.6295804388       -4.8796107335       -8.6226616235
 H         5.3112197453       -4.4518500341       -9.2425301639
 H         6.3409495827       -4.0349559370       -6.7549752883
 H         7.4282514320       -4.2087163684       -8.2025158213
 H         8.0076631421       -4.5165903501       -6.5813098812
 H         8.5596186105       -6.7415685249       -8.6949710961
 H         7.1198494081       -7.5696515409       -9.2078968410
 H         7.5293299450       -5.9482169699       -9.9130222586
 Na       -2.1309648559        2.5587536229        0.9246238124
