155

 C        -8.4097185928       -0.8490154826        7.2631298502
 C        -8.9956002331        0.2442609907        6.3414008478
 C       -10.5703100828        0.2360409667        6.0984582630
 C       -11.2346188461        1.4236230794        5.3176789767
 C       -10.3759585209        2.2180776538        4.1115134070
 C       -10.9803862565       -1.1536041768        5.3411861866
 C       -11.2958816718        0.1571840538        7.5348499610
 O        -8.2629705390        0.9482630262        5.7080706744
 O       -12.2014980718        1.9210265109        5.8122425207
 C       -10.5291545924        1.3805991276        2.7852893009
 C       -10.1598010006        2.4318325316        1.5991795741
 C        -8.9075016660        1.8961476996        0.6476928785
 C        -7.6787925063        2.6311670927        1.2338386627
 C        -6.9421638304        3.9649182649        0.7908608043
 O       -10.6437610001        3.4986318347        1.4386113633
 O        -7.2929994894        2.2901492394        2.3638649964
 C        -8.6575879844        0.3727352181        0.6126657957
 C        -9.3152151155        2.3652828752       -0.7368763763
 C        -5.9869487224        4.5978717960        1.8687060650
 C        -4.5052253258        4.2297610964        1.7133974098
 C        -3.3549016831        5.2660299720        2.1472462068
 C        -2.5685221955        5.7052480278        0.8699063909
 C        -3.4186844958        6.6180008457       -0.1563661794
 C        -3.9771455285        6.4503288091        3.0256815086
 C        -2.5197658465        4.4580591465        3.1367895598
 O        -4.1437680515        3.2245419897        1.1621518410
 O        -1.5579584104        5.1545102083        0.3893292598
 C        -3.3327862476        5.8419862607       -1.5121438709
 C        -1.9161741239        6.0180964596       -2.0186577297
 C        -1.1865923380        4.7439451186       -2.9255757030
 C        -0.7887956772        3.6540320736       -1.8035484329
 C         0.6613027824        3.7805409197       -1.1395391889
 O        -1.2265221550        7.0215119221       -1.9225020688
 O        -1.5493003353        2.7311642585       -1.4856755295
 C        -2.2740388240        4.1725303930       -3.8333338540
 C         0.0139134309        5.2901608628       -3.5920176173
 C         1.0948571872        2.4546741427       -0.4814762482
 C         1.0349108762        2.5461326462        1.0971909465
 C         2.2806325802        2.2055326340        1.9359014050
 C         2.5196487085        0.6005435412        1.5518802164
 C         3.7542576995       -0.1391777344        1.9218556144
 C         3.5437886994        2.9816196228        1.4091015483
 C         2.0061994225        2.3618339779        3.4497683020
 O         0.1051974761        3.0556427462        1.6880899370
 O         1.6458976372        0.1456750468        0.8416982827
 C         3.8677742132       -1.6340391028        1.3701826090
 C         5.2862331166       -2.1870642934        1.7897246153
 C         5.7081824392       -3.6693692394        1.4434854619
 C         6.3015925479       -3.5606953466        0.0221670272
 C         7.8308068824       -3.0639607461       -0.0448748572
 O         5.9738358960       -1.5562356190        2.5358958100
 O         5.5703158358       -3.4674713512       -0.9539660579
 C         6.8588797098       -4.1653859571        2.5582916116
 C         4.4652719798       -4.5528576335        1.6568058724
 C         8.4010928326       -3.4888220021       -1.3972802820
 C         8.5808133769       -5.0469270351       -1.4904195796
 C         8.6746900664       -5.7170773632       -2.9036753555
 C         7.1389503061       -5.7626772927       -3.2724216405
 C         6.6496186805       -7.1580701130       -4.0002168289
 C         9.6571185847       -4.6900432076       -3.7701621429
 C         9.2905874683       -7.1603963059       -2.8503856305
 O         8.8628724018       -5.7723009131       -0.4707424573
 O         6.4298950962       -4.8251747277       -3.0849805202
 C         6.1311510477       -7.1402760375       -5.5115548836
 C         7.0718885071       -7.0937827945       -6.6988094236
 C         6.5182659216       -6.1280214175       -7.7996335250
 C         5.0489889824       -6.1389873237       -8.1953091290
 C         4.5754338635       -5.2073682662       -9.4156414610
 O         8.2334206176       -7.4486727337       -6.8379625621
 O         4.3391843787       -6.9731650867       -7.7429131887
 C         6.8375994600       -4.7661760992       -6.9630883902
 C         7.3517010426       -6.1768570678       -9.2025825795
 H        -8.3690833758       -1.7919248292        6.8467283869
 H        -7.3278117696       -0.6158929626        7.4413219410
 H        -8.9324180298       -1.1106168040        8.2564723362
 H       -10.6512147732        3.2373145470        4.1389882423
 H        -9.3090094290        2.3028448564        4.3178285940
 H       -10.5766122527       -2.0767384433        5.7570001456
 H       -10.7997418422       -1.2791986214        4.2734754786
 H       -11.9597691648       -1.3094862417        5.4336740796
 H       -12.3504247479       -0.0206059211        7.2443653716
 H       -10.9176118405       -0.7422022547        8.0797431109
 H       -11.3840621105        1.1152084426        8.1892707681
 H        -9.9802261815        0.4442263260        2.7697227408
 H       -11.5890670965        0.9598769894        2.5361253651
 H        -6.4118627815        3.6865389611       -0.1187990853
 H        -7.6205236878        4.7992555479        0.6217120294
 H        -9.6856688114        0.0397245399        0.6786756837
 H        -8.1385963891       -0.0080281294        1.4594994769
 H        -8.2257434710       -0.1495702538       -0.2331824457
 H        -9.0294238704        1.7073341520       -1.5755404643
 H       -10.3566968632        2.3325506956       -0.7756223794
 H        -8.8656367746        3.4487599224       -0.8874075756
 H        -6.2695839515        4.0575053071        2.6921074283
 H        -6.3684762312        5.5770526373        2.3494716980
 H        -4.4748605863        6.7374411954        0.1225241383
 H        -2.8920332379        7.5295373863       -0.2563262988
 H        -3.1191960872        7.0164121075        3.5047930934
 H        -4.8135555538        5.9781365725        3.6380013237
 H        -4.5331522890        7.1528222577        2.4010498875
 H        -2.9026552282        3.4904448690        3.5067243263
 H        -1.4885121382        4.1524056580        2.9090193644
 H        -2.4524572097        4.9297825599        4.0493400252
 H        -3.5539785604        4.7504723876       -1.5481327425
 H        -4.1750287314        6.2738320534       -2.1654697802
 H         1.2618226177        3.8978850676       -2.0055383084
 H         0.6301283487        4.6861047870       -0.4423424960
 H        -2.3258816284        3.1151768322       -3.9704526067
 H        -2.1538036933        4.5491617659       -4.8528453701
 H        -3.2889855920        4.4274211251       -3.4927762211
 H        -0.2870323584        5.8286992748       -4.4643883188
 H         0.6712396521        5.7471998828       -2.8433485991
 H         0.6984210081        4.4969928690       -3.8688405243
 H         2.1160562825        2.2186108679       -0.8483944180
 H         0.4933273725        1.6766831724       -0.8260519577
 H         4.6940400968        0.4062802491        1.7813720284
 H         3.7379505003       -0.2729969118        3.0314061202
 H         4.4391693526        2.9216454625        2.1065891933
 H         3.3727705018        4.1056146538        1.2991390516
 H         3.9082088037        2.5888568645        0.4163961976
 H         2.4661172788        3.2865633150        3.8806132074
 H         0.9264293966        2.2239124655        3.7157938544
 H         2.5101930347        1.5464958768        4.0346460409
 H         3.0896994993       -2.2781938924        1.9322792818
 H         3.8100656135       -1.6115309887        0.2867739790
 H         7.8403028172       -2.0543005625        0.2317420605
 H         8.4101614793       -3.5869533333        0.7660269781
 H         6.3709620942       -4.5061045882        3.4558302473
 H         7.3393408906       -3.2562617206        2.9743555741
 H         7.3162828027       -4.9482578856        1.9809318527
 H         3.7721807015       -4.0805361579        2.2704160981
 H         3.9357424470       -4.8571796862        0.7700803754
 H         4.7749052050       -5.4444587238        2.1611038709
 H         9.3335996122       -2.8900098218       -1.4802598465
 H         7.6530347725       -3.2013532703       -2.0454374952
 H         7.2740625887       -8.0638491306       -3.8964192556
 H         5.8339816259       -7.2962017695       -3.3823905892
 H        10.5563167767       -4.3961831879       -3.1855569138
 H         9.1406183414       -3.9888654531       -4.3487534235
 H        10.1280679784       -5.3846458517       -4.4879321680
 H        10.2590774611       -7.2614073013       -2.3400614877
 H         8.6740630356       -7.8500913811       -2.2422041958
 H         9.3339211062       -7.5739691125       -3.8319291143
 H         5.5461444397       -8.0507718080       -5.7361421557
 H         5.2741171912       -6.5099598932       -5.5214947766
 H         5.0147390434       -4.2598818977       -9.2801452166
 H         5.0531028585       -5.6014089366      -10.4545862990
 H         3.5690174739       -5.1029260202       -9.3540033993
 H         6.0343399658       -4.6397560857       -6.2259198617
 H         6.6744290720       -3.9903978001       -7.7071424729
 H         7.8270262670       -4.8389783491       -6.4435143683
 H         8.2969633093       -5.8100043919       -8.9207400829
 H         7.3602325164       -7.2159584528       -9.6024017220
 H         6.9166979352       -5.5832661392      -10.0252620315
 Na       -1.8936494776        2.4881148868        0.9114190804
