155

 C        -7.3388086107        0.8754222514       11.4228105931
 C        -7.1261123934        1.1373143714        9.9169928861
 C        -8.2294293222        0.5813458032        8.9338046532
 C        -7.4669810921        0.3352439722        7.5535661117
 C        -6.9161654937        1.6768543968        6.8384677583
 C        -8.8154460376       -0.7555104806        9.4043583424
 C        -9.2347760054        1.7843992686        8.9022276412
 O        -6.1221896304        1.6449742348        9.5564779620
 O        -7.3634115151       -0.7986267941        7.1955306834
 C        -7.2603842672        1.6002485728        5.2379922073
 C        -6.4879384508        2.3493356194        4.1500793722
 C        -5.8781042143        1.3783150884        3.0043480209
 C        -5.7633264498        2.1818446752        1.7292172287
 C        -6.8806581681        3.0717885009        1.2561310218
 O        -6.1008205488        3.4610546005        4.2648814251
 O        -4.7923060786        2.0199195518        0.9210760186
 C        -4.4162016418        0.9310866527        3.3033442107
 C        -6.7881786835        0.1163208048        2.6236726926
 C        -6.5182572956        4.6007278908        1.4304370761
 C        -5.3176828274        4.8118350673        0.4958012454
 C        -4.2887180850        5.8713964709        1.0074843885
 C        -3.2263792000        6.1794018872       -0.1114362148
 C        -3.0721256535        7.3889449434       -1.0617912092
 C        -5.1357596440        7.0942483108        1.3273889053
 C        -3.5796792550        5.4486622741        2.3865770128
 O        -5.3231803232        4.3563480554       -0.5806725086
 O        -2.2762687695        5.4225264094       -0.2243261084
 C        -2.5599697569        7.1511057642       -2.4521766482
 C        -1.0948317671        6.7054666579       -2.4901139538
 C        -0.5894038653        5.5743471210       -3.5119057759
 C        -0.7042413481        4.2258134555       -2.8308298333
 C         0.5138442356        3.3282669488       -2.4308167616
 O        -0.2839102913        7.4646609491       -1.9791494562
 O        -1.8221466605        3.6947972518       -2.7497773407
 C        -1.2358721234        5.6613288758       -4.9077358140
 C         0.9263265207        5.8823753000       -3.7158614514
 C         0.0612725706        2.1374179134       -1.5211221523
 C        -0.0682621513        2.4389557516       -0.0208324503
 C         1.2397284155        2.1325100044        0.7714372995
 C         1.5971220526        0.5292446070        0.7386255280
 C         3.0718293342        0.1102125303        0.7398675716
 C         2.4946678891        2.8519018189        0.3173347313
 C         1.1076617782        2.3845083437        2.3010246041
 O        -1.0638613417        2.7773059472        0.5935901667
 O         0.7484054856       -0.3250551662        0.6326761114
 C         3.1285524206       -1.3110990472        1.2129001307
 C         4.5984830655       -1.9387645907        1.5116545128
 C         4.6992160552       -3.5354922154        1.4400692087
 C         5.6550589140       -3.9086915638        0.3287254073
 C         5.9102292559       -5.4806861400        0.2580348826
 O         5.5832953567       -1.2383323893        1.6573228519
 O         6.1317861007       -3.1539252303       -0.4491935112
 C         5.1683973676       -3.9102130603        2.8879344028
 C         3.3041542111       -4.3408781399        1.2715427828
 C         6.8717543634       -5.9048112461       -0.8937480991
 C         6.2513537147       -7.1297076592       -1.5394152430
 C         6.6637502568       -7.5450053893       -3.0737484847
 C         6.0748352986       -6.4885581089       -4.2253085240
 C         6.2902104295       -6.7146910905       -5.7092905594
 C         8.2149564227       -7.4467538435       -2.9219311494
 C         6.1797687757       -8.9722683392       -3.3021682945
 O         5.4233854285       -7.7655882105       -0.8664546051
 O         5.4055003400       -5.5687625479       -3.7806544323
 C         5.0714457899       -6.0162476225       -6.3692358739
 C         5.6252105425       -5.7244428714       -7.7971746802
 C         4.6876208757       -5.0697526205       -8.8979103164
 C         3.9948893586       -6.3221504253       -9.5530229439
 C         4.7792611295       -7.5212925890      -10.0730727637
 O         6.6617098351       -6.2215616664       -8.1587819446
 O         2.8223351554       -6.5384690775       -9.5492667582
 C         3.7482600879       -3.9773116754       -8.5467417241
 C         5.6458346697       -4.6351808912      -10.0605049434
 H        -7.0576137055       -0.1845694321       11.4935599858
 H        -6.7251816120        1.6229489471       11.8639037610
 H        -8.3818785754        1.1045792490       11.7356129334
 H        -7.3192400615        2.7408630074        7.2233689008
 H        -5.8173356780        1.7902199284        6.8912427892
 H        -9.2773636288       -0.7368292799       10.4586787749
 H        -8.0481537900       -1.5328035297        8.9793599973
 H        -9.6900443638       -1.0517410516        8.8744861177
 H        -9.9659697234        1.4155913224        8.1559383947
 H        -9.7185326563        1.9641276806        9.9050338999
 H        -8.7931814556        2.6899458567        8.4743197924
 H        -7.2678517166        0.5296972111        4.9702816043
 H        -8.3311309142        1.8311815701        5.1663982625
 H        -7.1123818221        2.8771490590        0.1780687398
 H        -7.7270685918        2.8863555355        1.9275192210
 H        -4.5617458345        0.2205227469        4.1067754961
 H        -3.6830599502        1.7874964953        3.3721828765
 H        -4.1204439801        0.3460802151        2.4012005083
 H        -7.2904624249        0.2648729914        1.7133155552
 H        -6.2274845014       -0.7631328251        2.6336421711
 H        -7.5641223511       -0.2025577153        3.4451259261
 H        -6.5367034653        4.9685258001        2.4346784806
 H        -7.4008695420        5.1657161813        0.9518129827
 H        -3.9507105313        7.9755340850       -1.0797940011
 H        -2.2965497494        8.0787618696       -0.5645303488
 H        -4.5831368184        7.8835634528        1.7248453902
 H        -5.8319439959        6.8946860705        2.1004765394
 H        -5.4371451772        7.3921725199        0.3236709154
 H        -4.1658668398        4.6335690139        2.7461947088
 H        -2.5934721949        5.1033385591        2.1526950503
 H        -3.5111993496        6.3876206380        2.8847768361
 H        -3.3139155901        6.4065342952       -2.9608960134
 H        -2.6713625591        8.0315266720       -3.1349962531
 H         1.0844403363        3.1294536781       -3.3129696889
 H         1.3483076726        3.8445953476       -1.7865468987
 H        -0.7927677606        4.9649543642       -5.6235563944
 H        -1.0090399834        6.6996535300       -5.3495681796
 H        -2.3515635752        5.3240402034       -5.0101089139
 H         1.0107659403        6.7562244156       -4.2978051162
 H         1.3823866766        5.9714687528       -2.7084024375
 H         1.3364472420        5.0012172552       -4.1228059729
 H         0.8029241065        1.3731772237       -1.5938462507
 H        -0.8514561513        1.5812230300       -1.9426129401
 H         3.3870335586        0.1272415754       -0.2704921991
 H         3.7253504731        0.7832984478        1.3239064980
 H         3.2771950788        2.7211325694        1.0885671873
 H         2.4381741996        3.8610751319       -0.0041430243
 H         3.0226459685        2.3327196269       -0.5035822803
 H         0.7501580324        3.4200620808        2.5877650324
 H         0.3503113370        1.6869320836        2.6472693283
 H         2.0725509660        2.1827444236        2.8589986177
 H         2.5143388055       -1.4489792573        2.1225505872
 H         2.7164761508       -1.9535300919        0.3917242091
 H         6.2995205198       -5.8261676344        1.1661320445
 H         4.9368910927       -6.1256088874        0.2513552475
 H         5.9022264476       -3.2309406599        3.2987196700
 H         5.7113397561       -4.8833060287        3.1128557851
 H         4.2924802828       -3.7859888584        3.5494823853
 H         2.9582936236       -4.0871372711        0.2783075979
 H         3.4392116187       -5.4660044315        1.3427541075
 H         2.5036227446       -4.0115247799        1.9699527260
 H         7.8161277411       -6.2685545996       -0.4147475185
 H         6.9616046519       -4.8862287673       -1.4667507645
 H         7.1881630461       -6.1077727649       -5.9383153624
 H         6.3967577885       -7.7955707431       -6.1727703041
 H         8.4646079874       -8.0839457138       -2.1325139695
 H         8.4394190540       -6.4011736195       -2.7146513359
 H         8.9275674965       -7.8014264833       -3.6790547444
 H         6.7954207469       -9.6124413343       -2.6487106658
 H         5.2585337569       -9.0849859072       -2.8663412427
 H         6.2438984508       -9.4083597730       -4.3676247769
 H         4.2612508476       -6.7926871506       -6.5950803160
 H         4.7967957421       -5.1769927902       -5.6703782772
 H         4.4369725477       -8.3353937395       -9.4424886860
 H         4.5585003040       -7.9987999658      -11.1359422681
 H         5.8452112702       -7.3871207786       -9.9021494920
 H         2.8636866839       -4.1656042152       -9.1367899133
 H         4.0803946940       -2.9363974867       -8.7845439618
 H         3.3183588602       -4.0430009335       -7.5521895463
 H         5.1546061218       -4.1213039965      -10.8460679128
 H         6.3385103402       -3.8277339026       -9.6868214790
 H         6.1253991429       -5.4023965236      -10.6560506217
 Na       -3.0245040454        3.3939321866       -0.7623433380
