155

 C         0.3678443382        5.1573973291       12.0182166706
 C        -0.8232644190        4.2290566945       11.5801178629
 C        -1.9947367735        4.6202077932       10.4153563930
 C        -1.5099912744        3.8245495165        9.1334200686
 C        -2.4227572506        2.7621932667        8.4591320739
 C        -3.3321835382        3.9205427236       11.0034442047
 C        -2.1520384297        6.1873667074       10.1600588515
 O        -0.7333730352        3.0849656743       11.8962979792
 O        -0.4060881804        4.0615863184        8.6796446065
 C        -1.5200524194        1.8710459435        7.5446827258
 C        -2.2152593876        1.8947977902        6.1743063223
 C        -1.9041637201        0.7895436920        5.0868507942
 C        -2.2454450421        1.3695491902        3.6876670648
 C        -3.6388533585        1.4499395650        3.0390165155
 O        -2.9464398589        2.7930975664        5.8523267099
 O        -1.2902058460        1.6922563709        2.9352066631
 C        -0.4704593887        0.3011244009        5.1959595640
 C        -2.8055506652       -0.4019067509        5.4007271114
 C        -4.1717979449        2.8583997830        3.0785555502
 C        -5.4623287267        3.0555491097        2.1450672491
 C        -5.5844247718        4.5594353149        1.5874561772
 C        -4.4542159529        4.8433895724        0.5716385047
 C        -4.5781209655        6.1298670209       -0.3731805373
 C        -6.9712885143        4.7180529741        0.8421369945
 C        -5.4869606848        5.7391763357        2.7383566774
 O        -6.1361716748        2.1517531877        1.7909663265
 O        -3.4610600176        4.0853900395        0.4629246801
 C        -4.5914728277        5.6625504775       -1.8660094810
 C        -3.1557230199        5.4628027557       -2.4850958005
 C        -2.8013067935        4.1037369061       -3.3553571015
 C        -1.8964047593        3.5473434502       -2.3184171642
 C        -0.3120852014        3.9621522779       -2.2647857993
 O        -2.2251051341        6.1830382865       -2.1151215603
 O        -2.2652792519        2.7965405761       -1.3941969140
 C        -4.1788125677        3.3429184403       -3.6435212745
 C        -2.1128595273        4.5036786278       -4.7751606451
 C         0.5823963963        2.9885582674       -1.6053778770
 C         1.0476644670        3.5135223899       -0.2132428606
 C         2.3236947132        2.9098033392        0.2612422253
 C         1.9690866024        1.3164964562        0.3843273595
 C         2.9827229421        0.1314614633       -0.1522973855
 C         3.4307987203        3.2858781414       -0.6096856095
 C         2.6020812211        3.3197974115        1.7371488447
 O         0.5031269984        4.3848047147        0.4521301065
 O         0.8523718646        1.0284550942        0.7086871738
 C         2.3614386201       -0.9124214214       -1.0143397920
 C         1.8598659198       -1.9956983124        0.0180943131
 C         0.9277740038       -3.1864109147       -0.6192798574
 C         1.8882129828       -4.0890507703       -1.4004821891
 C         1.6572058883       -5.6260425466       -1.2732235324
 O         2.0499461731       -1.7854742857        1.1961434144
 O         2.6736892728       -3.5991672360       -2.1665921982
 C         0.4052502679       -3.9170367244        0.6447223856
 C        -0.2919369496       -2.7037740645       -1.4133214643
 C         2.6260467313       -6.3910272827       -2.1806265258
 C         1.8693875195       -6.8870261381       -3.4737145306
 C         2.4288239787       -8.1076065767       -4.1997977351
 C         2.9197530278       -7.2918045974       -5.4057607656
 C         3.1144666390       -8.0361501022       -6.7738505128
 C         3.3579837489       -8.9787824922       -3.3225153367
 C         1.1374605119       -8.9490570440       -4.6583772382
 O         0.8568034384       -6.4020459157       -3.8935523195
 O         3.2611859906       -6.0798961816       -5.2882255462
 C         3.4435169909       -6.9078941646       -7.8443292577
 C         4.1830626947       -7.3351481814       -9.0973516438
 C         4.0426726019       -6.3387885150      -10.3934930416
 C         2.6059297528       -6.0979516192      -10.9027355319
 C         2.2293100515       -4.9404346739      -11.6809475554
 O         4.6430437142       -8.4179408300       -9.2397615356
 O         1.8776061811       -7.1273608667      -10.7661305668
 C         5.0983995506       -5.1812804236      -10.2678298076
 C         4.6477551647       -7.2743095078      -11.6469907949
 H         0.3506464831        5.0514741377       13.0432400859
 H         1.1716740069        4.8659790222       11.2484806773
 H         0.1177685716        6.1480490029       11.7650894082
 H        -2.8257338042        2.1112122411        9.3653822635
 H        -3.2506956189        3.3149640444        8.0297101961
 H        -3.3227353169        4.3232467093       12.0205034829
 H        -3.0904978112        2.8864945296       11.0648541207
 H        -4.2711178227        3.9935352013       10.4025004816
 H        -2.8490741376        6.5255161373        9.3844731983
 H        -2.5330856150        6.6132648279       11.0934279705
 H        -1.1683521412        6.4759913693        9.8851405209
 H        -0.4892017290        2.3460425542        7.4310625378
 H        -1.3688673897        0.9010070453        8.0195709296
 H        -3.5887150618        1.0503472803        2.0139003636
 H        -4.3837081912        0.8943059529        3.6025149061
 H        -0.1956295048        0.2055272602        6.2427072925
 H         0.1352331850        1.1954137473        4.9058195632
 H         0.0382451494       -0.5846360831        4.7265691361
 H        -2.6937984782       -1.1462976011        4.6363832632
 H        -2.7942959460       -0.8062613294        6.3962436476
 H        -3.9451506826        0.0083408057        5.4782414144
 H        -3.3679020148        3.6059756622        2.8547852675
 H        -4.5779948429        2.9623458273        3.9878457553
 H        -5.5621510573        6.6165669923       -0.1320621692
 H        -3.8957054627        6.8712818911       -0.1690314836
 H        -7.2054365163        5.7544783081        0.6324911395
 H        -7.6772023618        4.5226547561        1.6315230685
 H        -6.9536878880        4.0825666461        0.0198281152
 H        -4.5444138974        5.5696616870        3.3038496472
 H        -5.4558473172        6.7187050657        2.2462682112
 H        -6.2770964391        5.5159844544        3.4217578505
 H        -5.4007539581        4.8837971766       -1.9749760899
 H        -5.0326601793        6.5662432167       -2.4366524657
 H        -0.1058361656        4.0129321789       -3.3525297910
 H        -0.2816652531        4.9695259835       -1.8234824101
 H        -3.9727684578        2.5525000011       -4.3361836790
 H        -4.7594482007        3.9867213794       -4.2269771519
 H        -4.7133589603        3.0510303961       -2.8261213295
 H        -1.4303844711        3.7015348671       -4.9724629732
 H        -2.9712743186        4.3670294752       -5.3754821011
 H        -1.6097003359        5.4955365524       -4.7810713287
 H         1.5849524597        2.9568274550       -2.1381595274
 H         0.1816002113        1.9817365654       -1.6160142642
 H         4.0056633195        0.4757712336       -0.4675252177
 H         3.1199132510       -0.3357465671        0.7839866507
 H         3.1888331217        4.3550141833       -0.8585364072
 H         3.6249592872        2.7739867330       -1.5299561708
 H         4.3726587483        3.3961234798       -0.0094421341
 H         2.4686711448        4.4093878705        1.7536432717
 H         1.8901419137        2.7943418496        2.3133967382
 H         3.5139583800        2.9074959940        2.0558568495
 H         1.5825562716       -0.4346443773       -1.5596747393
 H         2.9588470013       -1.4344967010       -1.8408335513
 H         1.7174840550       -5.8956407261       -0.2983868819
 H         0.7392407616       -5.8235242322       -1.7336959686
 H        -0.1676923202       -4.8951173162        0.3634544740
 H        -0.2253161007       -3.1980814289        1.1975530162
 H         1.2048025238       -4.3450121349        1.3726262802
 H        -0.1866453736       -2.3409668081       -2.3941832229
 H        -0.8856382182       -3.6206349656       -1.5550134166
 H        -1.0045656403       -2.0647881541       -0.8671569025
 H         3.3153444080       -7.1102337979       -1.7430491649
 H         3.2761284882       -5.5391972511       -2.4922864455
 H         4.0754765419       -8.5592193687       -6.7660252833
 H         2.2256952775       -8.6540894067       -6.9564780528
 H         2.7045586021       -9.3503398510       -2.3838974339
 H         4.3673733706       -8.6636810170       -3.0166156079
 H         3.4935571179       -9.9634162604       -3.7661554885
 H         1.0191038154       -9.7013579477       -3.8875831817
 H         0.3817892109       -8.2460870227       -4.8845960514
 H         1.1373552236       -9.6107092651       -5.5307578060
 H         2.4516209061       -6.3909805746       -8.1903260823
 H         4.1621367609       -6.0960531518       -7.4156060709
 H         2.7670597527       -4.0528991126      -11.6410664683
 H         2.3555039402       -5.3369491588      -12.7123743464
 H         1.2440140369       -4.5930394966      -11.7103101984
 H         6.0689289341       -5.5900580796      -10.3918323042
 H         5.0414835667       -4.7483437733       -9.2381814634
 H         4.9073096204       -4.3749489713      -10.9949099187
 H         4.6122012168       -6.7414622741      -12.6424291468
 H         5.6862959463       -7.5829352560      -11.5206690963
 H         3.9421024640       -8.1109662892      -11.5849181428
 Na       -1.2800366219        2.7051030929        0.6936136755
