155

 C         1.1496281696        6.3996452165       11.3384710730
 C         1.5348597522        5.0022871443       11.3843094479
 C         0.3015941377        4.0334998336       10.9503630514
 C        -0.2259837464        4.6379628689        9.5860925320
 C         0.5666450163        4.0869950889        8.3003716645
 C         0.8062156140        2.5756339145       10.9010925465
 C        -0.8726500078        4.0007148508       12.0876594885
 O         2.6401886209        4.5765373943       11.7365519889
 O        -1.1790872581        5.3755827509        9.4709359155
 C        -0.2541582595        4.3146772926        7.0455212598
 C        -1.3464124356        3.3209604649        6.6435281863
 C        -0.9239630725        1.9774215065        5.7469631603
 C        -1.7304459747        1.8936741033        4.4461731424
 C        -3.1945405890        1.7240524391        4.3973693737
 O        -2.4973901139        3.4537722836        6.9003964223
 O        -1.0754984437        2.1263155926        3.3732273946
 C         0.5848477587        1.8826535690        5.4960885503
 C        -1.3439939941        0.6996076996        6.7637300598
 C        -3.9479419962        2.9418053443        3.8392359337
 C        -5.2392092593        2.4622209384        2.8440210414
 C        -5.7299515194        3.5742612005        1.8914888099
 C        -4.8323337356        3.6049819284        0.4796808176
 C        -5.2185271297        4.4828729702       -0.6975241652
 C        -7.1644502239        3.3564661485        1.4772914477
 C        -5.6330179799        5.0145335074        2.5055240713
 O        -5.6673880288        1.3268507320        2.8991838186
 O        -4.0058168321        2.7750219929        0.2988353498
 C        -4.6181360848        4.0083396721       -1.9900619362
 C        -3.4644753282        4.9665227870       -2.4953550966
 C        -2.5547920611        4.4764245958       -3.7416339802
 C        -1.1114315166        3.8104990924       -3.2475715535
 C        -0.0548563616        4.7686698078       -2.5873659663
 O        -3.2233074093        6.0247603547       -2.0725575906
 O        -0.8074369041        2.7661974288       -3.6533087449
 C        -3.1390451963        3.2733493348       -4.5547273584
 C        -2.3714566802        5.7588732015       -4.5219240424
 C         1.0544551332        3.8058075186       -1.9608267867
 C         0.8067419799        3.4167226701       -0.4811574857
 C         1.7736022189        2.5213151567        0.2767904742
 C         1.2005799645        1.0169717288        0.5733366440
 C         2.0260466022       -0.3427337957        0.6763965961
 C         3.1513620546        2.4946481803       -0.4534658077
 C         1.8958024508        3.2645359795        1.7042621455
 O        -0.3515809503        3.6236573499       -0.0573427765
 O         0.0226922220        0.9793371720        0.9215243285
 C         1.7224952765       -1.2400646315       -0.4406873219
 C         0.6484471096       -2.3182851314        0.0459644448
 C        -0.4296230350       -3.0500453961       -0.9823110896
 C         0.5502323507       -3.7519871489       -1.9885843035
 C         0.0722405176       -4.5389171624       -3.2691834392
 O         0.7092897860       -2.6942671041        1.1844590131
 O         1.7229625642       -3.7719563142       -1.6349396357
 C        -1.0725416865       -4.1611828539       -0.1421602870
 C        -1.4580491076       -2.0826226790       -1.6393019586
 C         1.3427730106       -5.2351155799       -3.8825524486
 C         1.2437817668       -6.8072864286       -3.8063515057
 C         1.0473546767       -7.7218293759       -5.0868034846
 C         2.3660395104       -7.7059540965       -5.8403951066
 C         2.3748033588       -7.5533612651       -7.3724300204
 C         0.8497048517       -9.1703838514       -4.6233201412
 C        -0.1293896054       -7.2627698520       -5.9397090277
 O         1.0378810439       -7.2760211205       -2.7181564396
 O         3.4356938936       -7.7171483383       -5.2284093809
 C         3.6965590316       -7.4419651050       -8.0051730965
 C         3.7194081312       -8.0083534412       -9.3942387506
 C         3.8149378916       -7.0198090865      -10.5582598635
 C         2.8999228312       -5.7082626093      -10.3823038801
 C         2.0212023855       -5.2527170101      -11.5484964523
 O         3.6249047554       -9.1977269474       -9.6843506441
 O         2.8069545434       -5.2777150513       -9.2844043985
 C         5.2072251317       -6.2667344539      -10.4036705187
 C         3.8177109899       -7.7536914060      -11.9452685832
 H         1.6447249440        7.0436475191       10.5440477702
 H         0.1161761993        6.8021614982       11.0598905782
 H         1.3898915818        7.1075200556       12.0833185815
 H         1.4059707990        4.7171464002        8.4501713491
 H         1.0582491897        3.0164308035        8.5206408698
 H         0.8817012371        2.3149719057       11.9714187083
 H         1.6519112721        2.4800336593       10.3307349610
 H         0.0520384492        1.9413478738       10.5315042003
 H        -1.8598448041        3.8563471523       11.6116157033
 H        -0.6299966262        3.1759284961       12.7262666850
 H        -0.9520943871        5.0277900441       12.4751279425
 H        -0.7911703796        5.1787669501        7.3275482894
 H         0.3894654295        4.7076214312        6.3143961380
 H        -3.3515387955        0.7887516530        3.8820749560
 H        -3.5551627237        1.6937777149        5.4630708605
 H         1.0306872512        2.2996028631        6.4377401913
 H         0.9789028992        2.5163537838        4.7397816785
 H         0.7504646959        0.9021042502        5.1974707694
 H        -0.7550870837       -0.0837741329        6.4446558726
 H        -1.2009035756        0.9104435724        7.7814881292
 H        -2.4907203811        0.4424901845        6.7926485954
 H        -3.4021770648        3.7173602720        3.2632444829
 H        -4.2431217423        3.5852299195        4.7660268158
 H        -6.2425495517        4.6069521366       -0.7087451035
 H        -4.9460111678        5.5732205012       -0.3784336604
 H        -7.7156741236        4.1726467252        1.0088088692
 H        -7.8462478826        3.1836596806        2.2901417435
 H        -7.0575450539        2.5610204470        0.7197538327
 H        -4.6453662119        5.4048869152        2.6242085034
 H        -6.2110955455        5.6784030632        1.9050278871
 H        -5.9146261900        4.9541227697        3.5707180507
 H        -4.1604449390        3.0604487034       -1.8190059856
 H        -5.3413822160        3.7133072323       -2.7268452021
 H         0.4277093013        5.5059648409       -3.2351928932
 H        -0.4723619989        5.4219883217       -1.8957609667
 H        -2.8101150795        3.2528962537       -5.5902237332
 H        -4.2570274034        3.1645522235       -4.6132636219
 H        -2.9226682586        2.3391223056       -4.0321611707
 H        -3.2423760075        5.9300057423       -5.1597615255
 H        -2.1258578550        6.6236259700       -3.8758072688
 H        -1.5556545853        5.7018162205       -5.2366847292
 H         2.0315388391        4.0812694253       -2.1771375401
 H         0.9032532321        2.8739563038       -2.5253480807
 H         3.1674363124       -0.2741298409        0.8607940817
 H         1.6146969323       -0.8537492656        1.5708712555
 H         3.4193476065        3.3777896636       -1.0168408533
 H         3.1025732767        1.6622736382       -1.2129106350
 H         3.9063242738        2.2712146971        0.2860270429
 H         2.2679147682        4.2408792657        1.4411667118
 H         1.0904096949        3.2531057576        2.4338542328
 H         2.6553110915        2.7009997688        2.2560830412
 H         1.4106649248       -0.8485083841       -1.4525913959
 H         2.5420741019       -1.8413039822       -0.7184555631
 H        -0.9737143052       -5.0347915061       -3.1835152489
 H        -0.3445988754       -3.7873752533       -4.0451560973
 H        -1.5890017818       -4.9921655239       -0.7325125642
 H        -1.7584633264       -3.6694681963        0.5280162786
 H        -0.3968275235       -4.8308059617        0.4962434531
 H        -0.9685183250       -1.2441983860       -2.1905381689
 H        -2.0070953892       -2.5720891385       -2.4172510152
 H        -2.1137723041       -1.7063272364       -0.8739905441
 H         2.2410198820       -4.9879045110       -3.2020072250
 H         1.5003818147       -4.7992202377       -4.8363248299
 H         1.8401188671       -8.3923174000       -7.9572069300
 H         1.6410366757       -6.7866730918       -7.6981809289
 H        -0.1111135895       -9.3838656327       -4.3070507358
 H         1.6649911611       -9.3455134779       -3.9393216621
 H         0.8770573750      -10.0176919924       -5.3827109578
 H        -1.1107372269       -7.1228133595       -5.4696353498
 H         0.1264260982       -6.5591760677       -6.6799013450
 H        -0.3597742205       -8.0675948209       -6.5253566997
 H         4.1117803950       -6.4591939360       -8.0367054307
 H         4.2919457441       -8.0488326386       -7.4325327405
 H         2.0329100866       -6.0659393109      -12.3698234220
 H         1.0034129126       -4.9547014832      -11.2420383212
 H         2.6419746251       -4.5223136812      -12.0380021405
 H         5.3418181913       -5.6036719123       -9.5018246129
 H         5.5194368277       -5.6342694102      -11.2471042770
 H         5.9550231911       -7.0186686706      -10.3019454709
 H         4.0690268490       -7.0037697722      -12.6958457697
 H         4.6804908763       -8.4441378627      -12.1304608705
 H         2.8768346268       -8.2786614172      -12.1350284781
 Na       -2.0058822438        2.4382472966        1.1257227764
