155

 C         1.2307347070        6.5252008595       11.6141022937
 C         1.6368479148        5.1055293832       11.2810347201
 C         0.6160218134        3.9989218318       10.9317123602
 C        -0.1137813768        4.4351467271        9.6486722382
 C         0.6544098350        4.1595323819        8.1731811098
 C         1.3035979889        2.5869437256       10.7668743795
 C        -0.3941135614        4.0695509144       12.1113030301
 O         2.8336940126        4.8264350579       11.2691336215
 O        -1.1450871500        5.0391983405        9.8664193205
 C        -0.2345530977        4.5890400410        6.9514179770
 C        -1.2876631833        3.5150592345        6.6368595992
 C        -0.8787647531        2.1628246053        5.9805082460
 C        -1.6611572522        2.3282556302        4.6123872423
 C        -3.1347569097        2.0437327547        4.5792024637
 O        -2.4517915684        3.5224432280        7.1102866630
 O        -1.1088168461        2.6845668476        3.6414770859
 C         0.6458498246        1.9433128773        5.6426030760
 C        -1.4738393943        0.9974023414        6.7110752942
 C        -3.7889360776        3.0611244582        3.6690633715
 C        -5.0719759311        2.4966686393        2.9289777789
 C        -5.6684013933        3.4393784250        1.7763562585
 C        -4.9175083952        3.1737986814        0.4938075840
 C        -5.2906777632        4.0702885752       -0.7868096241
 C        -7.1942593553        3.1292965222        1.6239554937
 C        -5.5223593833        4.9104814763        2.2280837326
 O        -5.5066849873        1.3852281035        2.9644351098
 O        -3.9618395433        2.3740116001        0.4327732516
 C        -4.4458143404        3.7308434199       -1.9773256015
 C        -3.4025999009        4.8373021179       -2.3631218463
 C        -2.6491744133        4.4886589570       -3.7365548354
 C        -1.1387879163        3.8914431926       -3.4548639894
 C        -0.2295306091        4.7606558683       -2.4778797063
 O        -3.2115758762        5.8217833744       -1.6064894303
 O        -0.7528241079        2.8168600163       -3.9713248396
 C        -3.4381643124        3.5154436056       -4.5766663753
 C        -2.4294710952        5.7553993937       -4.6748726366
 C         1.0326731825        4.1222173697       -1.7668576491
 C         0.6518276709        3.3364421763       -0.5215451081
 C         1.6323551763        2.3011885565        0.1720295935
 C         1.1426138633        0.8393885363        0.5015597402
 C         2.1175125832       -0.2421910847        0.1247594464
 C         3.1316006153        2.3155273444       -0.4033434159
 C         1.8533688585        2.9332584388        1.7198325397
 O        -0.3401359430        3.6474418628        0.0221197203
 O         0.1091479853        0.7399312874        1.0976212828
 C         1.4038832508       -1.3714904704       -0.7005981798
 C         0.2285082264       -2.1745305377       -0.0265658493
 C        -0.6039962317       -3.1309496516       -1.0436196758
 C         0.5212343441       -3.9176594727       -1.9329821781
 C        -0.0116028331       -4.4966729121       -3.2657381006
 O         0.2629375787       -2.3283358398        1.1548268250
 O         1.6509060829       -4.0691023953       -1.5112197501
 C        -1.2810685043       -4.2871982408       -0.3325531218
 C        -1.6485886580       -2.1827843615       -1.6498807712
 C         1.1677510445       -5.1780372758       -4.0659333889
 C         1.1830404701       -6.7019778929       -3.9139600465
 C         0.8511678111       -7.5666650651       -5.0833379615
 C         2.4553580838       -7.7089785585       -5.8375369318
 C         2.4893149908       -7.2434680002       -7.3206495243
 C         0.6060884945       -9.0158156078       -4.5283553026
 C        -0.2564117259       -7.0903991615       -6.1261086241
 O         1.0904615376       -7.1331779023       -2.7407564025
 O         3.3947350503       -8.2122362951       -5.3235791518
 C         3.9544896881       -7.6553039771       -7.8668738592
 C         3.6450199719       -8.0026130139       -9.3773342909
 C         4.0240838012       -7.0207776467      -10.5430794040
 C         2.8574715438       -5.7281581654      -10.4643740822
 C         1.9571630416       -5.3967672918      -11.6595900134
 O         3.1025545049       -9.0678747384       -9.6433210063
 O         2.8107946715       -5.0568478819       -9.4284206823
 C         5.4111165201       -6.4212015526      -10.5218356720
 C         3.6689592739       -7.7420749735      -11.8762866835
 H         1.7208943414        7.3941273976       11.3501329985
 H         0.3903569998        6.8913092382       11.2476872149
 H         1.0860516924        6.6981477594       12.7030745325
 H         1.6742680684        4.5631223140        8.3573662756
 H         0.7447211655        3.1857701759        8.2198568206
 H         1.6591637751        2.2829976881       11.7455604452
 H         1.9642485597        2.6461376022        9.8173101877
 H         0.5069071755        1.8075135933       10.6020743426
 H        -1.1874707278        3.3130196445       11.9210794308
 H         0.1175603940        3.5900001023       12.9540029721
 H        -0.7268752256        5.0961474682       12.1692171406
 H        -0.5776211284        5.6504003091        7.1749112211
 H         0.4773863140        4.8497879152        6.1061430895
 H        -3.4235680762        1.0798255036        4.0558878686
 H        -3.5390643006        2.0820724969        5.5663182773
 H         1.3354689227        2.2374143109        6.4178484163
 H         0.7911660334        2.6012472824        4.7446271962
 H         0.7652965458        0.7982880693        5.3669845954
 H        -1.9477116315        0.2950158085        5.9829741891
 H        -0.6623732593        0.5729283906        7.3330012171
 H        -2.0599311265        1.3571596518        7.4558855657
 H        -3.2160611347        3.5993512218        2.9535226338
 H        -4.2184697044        3.8534342508        4.1365185594
 H        -6.4450225784        4.1203415417       -0.8928640442
 H        -5.1382902837        5.0815313846       -0.6081019299
 H        -7.8199876923        3.8324711232        1.0782228466
 H        -7.6858610270        3.1694560712        2.6104663334
 H        -7.2819925812        2.2055842858        1.0414507038
 H        -4.3889394555        5.0463946846        2.2407762128
 H        -5.7972489757        5.6681692588        1.4547435893
 H        -5.8261171975        5.1832957049        3.2326209034
 H        -3.9993025747        2.6688796751       -2.0519627371
 H        -5.0799430552        3.6548922043       -2.9049690008
 H         0.2860425096        5.5891823872       -2.9639435228
 H        -0.8694563206        5.3239886687       -1.7188158751
 H        -2.7822200232        3.1022346663       -5.3674297990
 H        -4.2355793531        4.0059173394       -5.1577322470
 H        -4.0586101579        2.7211995259       -4.1071922971
 H        -2.5180246236        5.4921455750       -5.7300259743
 H        -3.0878247644        6.5697356313       -4.4436789779
 H        -1.4315837694        6.2325139404       -4.6008456637
 H         1.8322392358        4.9031236975       -1.4925078204
 H         1.5199563964        3.5121952922       -2.5430414380
 H         2.8186346884        0.1150064830       -0.5992857373
 H         2.7186257814       -0.5882398282        0.9701302129
 H         3.5178291589        3.3278611204       -0.2592990600
 H         3.3646786771        1.9865565518       -1.3952695761
 H         3.6275249453        1.6300597752        0.3062444583
 H         2.6443986371        3.7566589266        1.6691407446
 H         0.8957395505        3.3128934685        2.2012877555
 H         1.9663486436        2.0850103296        2.4110221143
 H         1.3529802522       -1.0947901033       -1.7499226281
 H         2.1651761141       -2.2464478879       -0.8604126509
 H        -0.7217623743       -5.2135250760       -2.9508439778
 H        -0.7425898697       -3.9011388254       -3.7117859264
 H        -1.9495124524       -4.7109568876       -0.9692908142
 H        -1.8291021295       -3.8339784731        0.4595085303
 H        -0.7502386242       -5.0799241399        0.0397110807
 H        -1.4301062173       -1.1276808526       -1.6100543004
 H        -1.9289814690       -2.3886043668       -2.7070624885
 H        -2.5166062529       -2.3575799922       -0.9910125119
 H         2.0275538741       -4.7834692871       -3.5895941612
 H         1.1330338649       -4.9421573133       -5.1881486002
 H         1.7267199140       -7.6471976366       -7.9044163906
 H         2.1929842477       -6.2238226971       -7.4818611874
 H        -0.2444692326       -9.1634624753       -3.7836607900
 H         1.4908885061       -9.6160877822       -4.2540789874
 H         0.1804992727       -9.5436677398       -5.3496715493
 H        -1.2040108857       -7.4868028290       -5.8781405167
 H        -0.2698442451       -5.9812707932       -6.2020895748
 H        -0.1470514616       -7.4001137226       -7.2488528925
 H         4.4552890374       -6.6930490684       -7.6578392854
 H         4.5038701674       -8.5174358786       -7.2947752258
 H         1.6775966176       -6.2135893859      -12.2961702474
 H         1.0647258862       -5.2883820974      -11.0981597870
 H         2.3430884628       -4.5857077123      -12.3271824249
 H         6.0719164459       -6.8977887876       -9.8361509387
 H         5.4038029721       -5.3871456779      -10.1529113264
 H         5.9945843285       -6.5285022951      -11.4917841534
 H         4.0699201278       -7.3425165984      -12.8201589088
 H         4.2557764498       -8.6013554872      -11.8257467015
 H         2.6311780306       -8.0775646916      -11.9106808638
 Na       -1.5501292057        2.4053491657        1.4109633119
