155

 C         6.3769815021       -1.2063553821       10.5898926739
 C         6.2047343176        0.2740917854       10.0551810309
 C         6.5738822369        0.4091401798        8.4984293701
 C         5.7017097889       -0.5188624187        7.4938789568
 C         4.7669088479        0.1247465878        6.3742178390
 C         6.3555326429        1.8954349081        8.1372202923
 C         8.0822460558        0.0990143661        8.3041784400
 O         5.6585560525        1.1446587669       10.6836147659
 O         5.7505179836       -1.6821576866        7.7871016472
 C         3.7424644811       -1.0050147680        5.9615964853
 C         4.1228862915       -1.7263509834        4.6595593352
 C         3.1943842342       -3.0236375333        4.3197819070
 C         1.7128571742       -2.5989845654        4.2064697480
 C         0.7336531778       -3.6683300176        3.7153762702
 O         4.9701970486       -1.2906511261        3.8727618751
 O         1.3039941169       -1.4736958047        4.5562093656
 C         3.6452309185       -3.6682725879        2.9424085238
 C         3.3068041332       -4.0591052728        5.5926014226
 C        -0.7443264768       -3.0984597554        3.7404055961
 C        -1.2434351132       -2.3867900269        2.4812087083
 C        -2.6358477991       -1.7688106520        2.4733533267
 C        -2.3271235259       -0.1919711471        2.5135566000
 C        -2.9825771261        0.6628643592        3.5918498613
 C        -3.4421025115       -2.1705945517        1.1470856188
 C        -3.4187488683       -2.2638242952        3.7130618972
 O        -0.5755474001       -2.3456324571        1.4637569462
 O        -1.4469980668        0.2610292748        1.7833178460
 C        -2.4763892639        2.0827788589        3.5947155050
 C        -1.0523364233        2.0734329109        4.2912468614
 C        -0.0609732496        3.3893527866        4.1501868969
 C         0.6510307144        3.2890321265        2.8294586276
 C         1.9685439084        2.5279041928        2.7372723262
 O        -0.6349092898        1.1991428307        4.9713856864
 O        -0.0040692515        3.4319773097        1.7909363935
 C        -0.8631330640        4.7363336229        4.1681248298
 C         0.7501176213        3.4869027381        5.4889023546
 C         2.4556514183        2.3737036388        1.3399117361
 C         1.4960560284        1.4042367886        0.4450316544
 C         1.3271775823        1.8643902467       -1.2155100141
 C         0.3005760752        0.9851846968       -1.9908572170
 C        -0.7751732945        1.4490786229       -2.9629059368
 C         0.9326087198        3.3574800511       -1.1887819651
 C         2.7379851464        1.5715865911       -1.9783701901
 O         0.9819692672        0.4579842016        0.9696867235
 O         0.4549018339       -0.2317357026       -1.8755748979
 C        -1.7356939769        0.3315927460       -3.3449166207
 C        -2.9114092592        0.5240629647       -2.3758506074
 C        -4.2001206474        1.2869642083       -2.6943578216
 C        -5.0411248632        0.0939902648       -3.2507702905
 C        -4.9330028609       -0.0840492328       -4.8067887902
 O        -2.8516028187       -0.0260849638       -1.2751970115
 O        -5.6063035674       -0.6469118948       -2.5083994568
 C        -4.7358210134        1.9024978524       -1.4119500963
 C        -4.0857898699        2.3641775946       -3.7420341655
 C        -5.6992736634       -1.3771922229       -5.3254122072
 C        -5.0023694892       -2.0556838877       -6.6001135909
 C        -5.6780641089       -1.8846780742       -8.0205828379
 C        -4.8795510687       -0.5494094006       -8.5905804399
 C        -4.1675919375       -0.6858744908       -9.9228342725
 C        -5.6299211423       -3.2323492548       -8.7844864199
 C        -7.2019292479       -1.5724805197       -7.7810060877
 O        -3.8350043264       -2.5062132291       -6.5431228514
 O        -4.8824905982        0.4582784903       -7.9030356001
 C        -2.6637747199       -1.1626012748       -9.8552019120
 C        -1.5870389778        0.0158623840       -9.8643948458
 C        -0.5515740927        0.1255125142       -8.6145263031
 C        -0.5905566909        1.5827337375       -7.9116037738
 C        -0.0154172633        2.8009057890       -8.6204021081
 O        -1.3791529574        0.6643985606      -10.8367383847
 O        -1.0570262734        1.6344772020       -6.7894192853
 C        -0.8095981445       -0.8693131565       -7.5308500623
 C         0.8484654560       -0.1165004913       -9.0948429627
 H         6.1067242483       -1.9633282726        9.8028217910
 H         7.3780898109       -1.3182238537       10.8556713097
 H         5.7739961999       -1.2290182541       11.4562031863
 H         4.2128489559        0.7974385220        6.9282704282
 H         5.3658855351        0.4918735206        5.4815309145
 H         6.8958920106        2.5661332019        8.7776865455
 H         5.3317588519        2.2251273116        8.2163742762
 H         6.5330421557        2.1059392313        7.1129478407
 H         8.3194960958       -0.9407392121        8.4959322804
 H         8.3957677730        0.1811703179        7.2171289715
 H         8.7591899486        0.7674206027        8.9498245455
 H         3.8829604260       -1.7199020667        6.8063851434
 H         2.7663158925       -0.6402949410        6.0538492560
 H         0.9521557090       -4.0986347841        2.7254478997
 H         0.7929794359       -4.4858769551        4.4829787825
 H         2.9068795616       -3.4907640732        2.1876689204
 H         3.8888350118       -4.7062216342        2.9820021495
 H         4.5933225818       -3.1976382548        2.6128877010
 H         2.5516933032       -3.7909392237        6.3781719308
 H         3.1172259339       -5.0993780163        5.2126451607
 H         4.3277247485       -3.9795551022        5.9858425712
 H        -0.6649832453       -2.3886791846        4.5565545920
 H        -1.4584930508       -3.8889644406        4.1285475514
 H        -4.0698010218        0.4937499665        3.3782808936
 H        -2.7678909609        0.2170353832        4.5155266179
 H        -2.8864645587       -1.7112764468        0.2550646911
 H        -4.4700817339       -1.7736945431        1.1722558615
 H        -3.3923098968       -3.2066024900        0.9615097719
 H        -3.6175820145       -3.3594617030        3.7053517984
 H        -2.9634317469       -1.9883953979        4.7271417833
 H        -4.4287914165       -1.7278444626        3.7627105325
 H        -2.1986386834        2.3802896805        2.5535388042
 H        -3.1071272521        2.8608382853        4.0307159092
 H         2.6914435180        3.1326991104        3.2613107963
 H         1.8366048311        1.5777181584        3.2362822605
 H        -1.3543773357        4.9979814400        5.0948821005
 H        -1.6932606176        4.7964183918        3.4093367306
 H        -0.1742317366        5.4925286517        3.7290813588
 H         1.5024184660        4.3121206479        5.4531131564
 H        -0.0325769857        3.6794915577        6.1737836904
 H         1.3378381615        2.5834633151        5.5627440637
 H         3.4992275464        2.1349033200        1.3697658828
 H         2.4008947849        3.4046062472        0.8879690705
 H        -1.2356455476        2.3346130494       -2.6813711314
 H        -0.3577208245        1.9500643921       -3.8556618591
 H         1.7858909499        3.9352092513       -0.8545707677
 H         0.0767180426        3.4719561100       -0.6177054381
 H         0.7825176313        3.7603477103       -2.1227581024
 H         3.4248528176        2.1406123802       -1.3624647413
 H         2.9558841851        0.4814172940       -1.9639954103
 H         2.6467422738        1.9153240006       -2.9476867503
 H        -2.1522209839        0.5758926790       -4.3536834050
 H        -1.2671858216       -0.6745919542       -3.4460026650
 H        -5.1067498258        0.8234181758       -5.3421216710
 H        -3.8245940842       -0.2455664932       -5.0863193743
 H        -5.4205475622        2.7559412224       -1.4653421182
 H        -3.9807930074        2.2954904004       -0.7244126595
 H        -5.4104621540        1.2130083052       -0.7735931658
 H        -3.6914948888        3.2486875416       -3.3138231532
 H        -3.4832738917        2.1347692281       -4.7089282557
 H        -5.1251737534        2.6903713098       -3.9329480348
 H        -6.7116150189       -1.3004792412       -5.4831686608
 H        -5.5339163774       -2.0614796427       -4.4699692578
 H        -4.8102349410       -1.3986031058      -10.4403176134
 H        -4.2423142379        0.2265673384      -10.4223628024
 H        -6.0530978784       -4.0313614333       -8.2207891902
 H        -4.5873204077       -3.4032755091       -9.0297437806
 H        -6.2098964693       -3.1352388947       -9.6808663057
 H        -7.5885129830       -2.2488073112       -7.1051595176
 H        -7.2685162763       -0.5017229068       -7.4316567184
 H        -7.7157514127       -1.4674203543       -8.7003829748
 H        -2.5613470007       -1.9292210418       -9.0673569744
 H        -2.5075474018       -1.6740525176      -10.8205286406
 H         1.1012704835        2.9307514636       -8.5784933380
 H        -0.3385017910        2.6584940816       -9.6754532604
 H        -0.4525212780        3.7256415674       -8.2164983490
 H        -1.1260928184       -1.8707169791       -7.8199366770
 H        -1.5934683660       -0.6246139482       -6.8021267179
 H         0.1021056281       -0.9759687154       -6.8784640321
 H         0.9223538068       -1.1363476543       -9.4864555823
 H         1.2224706497        0.5645313791       -9.8462490258
 H         1.6827344431        0.0062592536       -8.3432799074
 Na       -0.6883081362       -0.7944299696       -0.3521278941
