155

 C         3.1276680274        6.4527923122       12.8573861890
 C         2.6282922467        6.0212379122       11.3966342694
 C         2.5644365174        4.4619598858       11.0874986203
 C         1.3504982389        4.3003860736       10.0678707805
 C         1.3994860811        4.8045787547        8.6567139592
 C         3.9517624227        4.0509894358       10.4254124759
 C         2.1927423304        3.3649979489       12.2232192857
 O         2.4801338948        6.8710297779       10.5775436836
 O         0.3420228931        3.7429130456       10.4179211885
 C         0.0274656537        5.1078494357        8.0333127540
 C        -1.1500378446        4.1191452715        7.4534172063
 C        -0.9285638899        3.0194621980        6.3159684477
 C        -1.8062222454        3.1613419617        5.0253723199
 C        -3.1305828724        3.8981805647        5.0480070584
 O        -2.2477019696        4.6337363512        7.6053682416
 O        -1.4799099097        2.5385009376        4.1117089777
 C         0.5126272780        2.7408706899        5.8538866295
 C        -1.4733931305        1.6580453760        7.0313400458
 C        -3.7502483926        3.9995501370        3.6467156968
 C        -4.2708911077        2.6102534541        3.0771012234
 C        -5.0738239013        2.6525077345        1.6622166385
 C        -4.2135575984        2.1262067338        0.3933535227
 C        -4.7690530026        1.8888377195       -0.9819579038
 C        -6.1927995384        1.6232112857        1.6826263934
 C        -5.5738634938        4.0279145976        1.3564849998
 O        -4.0570217336        1.5770975203        3.6833879642
 O        -3.0414106600        1.9627324870        0.5477026163
 C        -3.7915533917        2.2678529633       -2.0225505986
 C        -3.8035685227        3.7990743787       -2.2812781370
 C        -2.8186313425        4.4419477865       -3.3640369391
 C        -1.3479076820        3.8219320150       -2.9124147476
 C        -0.3124119241        4.7694010752       -2.0772251172
 O        -4.4145038603        4.5872148489       -1.5919945137
 O        -1.0542385511        2.6876811665       -2.8741045480
 C        -3.3031429331        4.0251030089       -4.8442950068
 C        -2.8208841022        6.0575257567       -3.2881495720
 C         1.0978194537        4.1496343630       -1.7636128520
 C         0.9420035930        3.4966819953       -0.3602348687
 C         1.5740914014        2.0451978389       -0.0256585010
 C         0.3951747485        1.0219480143       -0.2633320812
 C         0.6136453594       -0.0771067975       -1.2298173561
 C         2.8401411504        1.7960670468       -0.9097135619
 C         1.9734414510        1.9301132562        1.4357345865
 O         0.2908496861        4.0533367994        0.5440306674
 O        -0.6550454455        1.1183662634        0.3780742654
 C        -0.7325683330       -0.9515617389       -1.7161151919
 C        -0.9972374146       -2.2448377089       -0.7220951885
 C        -1.2582881609       -3.6660626612       -1.5366129912
 C         0.0242022167       -3.7732651201       -2.5100476190
 C        -0.0867826350       -4.2819769277       -4.0088693144
 O        -1.2738764370       -2.1481789347        0.4494848794
 O         1.0913525158       -3.5273372241       -1.9750865024
 C        -1.5015197092       -4.7111360590       -0.3616915031
 C        -2.5204132810       -3.3323462523       -2.3317196261
 C         0.8538478141       -5.3011122266       -4.6197073415
 C         0.5416803349       -6.8407313871       -4.2401083288
 C         0.3659540303       -7.7992596364       -5.4898067981
 C         1.6834447373       -8.1658451199       -6.1146209220
 C         2.7698298139       -6.8551557233       -6.5500744806
 C        -0.4561119161       -8.9634855133       -5.1564071204
 C        -0.6058066954       -6.9982969703       -6.5700867256
 O         0.3951538419       -7.2033274233       -3.1023045343
 O         2.1620623815       -9.2807824609       -6.1427685282
 C         3.7192910097       -7.3080244423       -7.6958807167
 C         2.8663954615       -7.4854515625       -9.0518660614
 C         3.5148178527       -7.1799220862      -10.3928721549
 C         3.2190690975       -5.6608935864      -10.8411855492
 C         1.8200313584       -5.4291979009      -11.2950465981
 O         1.6570627841       -7.7034640943       -8.8962228194
 O         4.0670232176       -4.8116930162      -10.9549458117
 C         5.0961140576       -7.3399199334      -10.2477585534
 C         3.1411862595       -8.3044560582      -11.4265037597
 H         3.4857096072        7.3918109502       12.7508573845
 H         2.1529313466        6.2906321612       13.3378193384
 H         3.7828736769        5.6323376765       13.0943866261
 H         1.9142913413        5.7071481901        8.6527655202
 H         1.9550581112        3.9896786903        8.0773479869
 H         4.6442511911        3.8202666588       11.2001657381
 H         4.3837442645        4.6527852360        9.7342561341
 H         3.9381573202        3.0983013906        9.9124087037
 H         1.9768062520        2.3809843545       11.7330547920
 H         2.9934053692        3.2187310237       12.9676556974
 H         1.1747608206        3.3597429061       12.7048931738
 H        -0.4752344614        5.5438273554        8.8455536343
 H         0.2430944818        5.8004652386        7.2604097882
 H        -3.8116452914        3.4055766092        5.7410843165
 H        -3.1591088373        4.8928859349        5.3995917403
 H         1.2164337603        2.4996552457        6.6926036463
 H         1.0048561428        3.7050575504        5.7022396479
 H         0.5140610101        2.2360759898        4.9285984489
 H        -0.7742763240        0.8156781487        6.8586406664
 H        -1.6113880300        1.7923236358        8.1249075639
 H        -2.3289929443        1.2805012975        6.5595347709
 H        -2.9219646943        4.5747159891        3.0502944053
 H        -4.6283375692        4.6700886501        3.8171717958
 H        -4.9316366947        0.7804491955       -1.0015571010
 H        -5.6772921155        2.5080909363       -1.0509622004
 H        -6.3261326850        1.1891603514        2.6708069611
 H        -5.9563019393        0.6949108321        1.2091199751
 H        -7.1833741159        1.8167614139        1.3016038522
 H        -5.0728012169        4.9021641960        1.7459809128
 H        -5.8427563076        4.2884901341        0.3809073232
 H        -6.5021683187        4.1857383632        1.9646588570
 H        -2.8364876036        2.0732063668       -1.4879971681
 H        -3.9102082186        1.6821501305       -2.9076893686
 H        -0.1678661033        5.6290794241       -2.7134202307
 H        -0.7257715591        4.9988014710       -1.1103767087
 H        -2.5087258251        4.1301229199       -5.5722326237
 H        -4.0056818208        4.8098157379       -5.0448410905
 H        -3.8351433607        3.1356584446       -4.8104436708
 H        -2.3006782205        6.3914412499       -4.1638630873
 H        -3.8787519172        6.2890410068       -3.4969677564
 H        -2.6289276432        6.6556428692       -2.4210991617
 H         1.7486057369        5.0587824288       -1.8393873428
 H         1.3987507865        3.4510766237       -2.4960673143
 H         1.0702623695        0.3520735587       -2.2181258033
 H         1.3523132035       -0.6846259997       -0.7985576169
 H         3.4773011867        2.5897288676       -0.6606063435
 H         2.7436160269        1.9373201047       -2.0336320285
 H         3.3948810660        0.8662993004       -0.6946872372
 H         1.2851669903        1.3054106951        1.9861637932
 H         2.9089632809        1.5101676947        1.4404784883
 H         2.0767400085        2.7396265043        2.1385368375
 H        -1.5965291418       -0.2502006107       -1.6268245450
 H        -0.3411032906       -1.2883378514       -2.6798212756
 H        -1.0150751918       -4.8764353635       -4.1205543059
 H         0.1059462863       -3.2965908590       -4.5890766062
 H        -1.2237520353       -5.8208846075       -0.5527842330
 H        -2.4757473895       -4.3888473352        0.1072952683
 H        -0.8343241078       -4.3977085016        0.4817754416
 H        -2.8096460149       -2.2987586663       -2.0037891377
 H        -2.2835958958       -3.4104816871       -3.3636702909
 H        -3.2541786202       -4.1357597247       -2.1857575037
 H         1.8672557709       -5.1491034468       -4.3155958923
 H         0.9194267995       -5.2362607954       -5.6920578561
 H         2.2296413079       -5.9606593192       -6.9139330092
 H         3.4167386600       -6.7965204305       -5.5921419458
 H        -1.4866122211       -8.7596679449       -5.3141704409
 H        -0.1392221930       -9.2576803552       -4.1473064105
 H        -0.2168966999       -9.8668927140       -5.8169631214
 H        -1.3369101925       -6.5494468422       -5.8951215324
 H        -0.0638748219       -6.3621249704       -7.2959337002
 H        -1.1995553038       -7.7032143164       -7.0095814728
 H         4.4393550328       -6.5230632895       -7.8634031501
 H         4.2600315820       -8.1114718656       -7.3066647634
 H         1.1586263125       -6.3021085217      -11.1524354959
 H         1.4622502088       -4.4544493209      -10.8079043975
 H         1.8148165070       -5.0916841711      -12.2450825381
 H         5.1675852789       -8.0703620615       -9.4131839862
 H         5.4871511977       -6.4320507222       -9.8173905399
 H         5.4778899861       -7.7026475710      -11.1493043786
 H         3.5871054983       -8.3420534452      -12.4346149756
 H         3.1394386046       -9.3154285882      -10.9844830018
 H         2.0521707528       -8.2136744776      -11.4918421648
 Na       -1.3801734650        2.5343161849        1.9522932844
