155

 C         3.3846719575        6.5178472112       12.5891655471
 C         2.6226670335        6.0247431435       11.3570260022
 C         2.8645633748        4.5224067180       10.7244815245
 C         1.5454467881        4.2207936801        9.9885993011
 C         1.4496378849        4.9741890463        8.5670820507
 C         4.1386622353        4.4351190333        9.8730379104
 C         3.0668276135        3.4458982284       11.7545828012
 O         1.9318666069        6.7895772865       10.8098378191
 O         0.7192142716        3.4921287790       10.4962827184
 C         0.1811258325        5.5077733828        7.8957739682
 C        -0.9293534775        4.5762904086        7.5010488659
 C        -0.8309694143        3.0759937742        6.6009923851
 C        -1.4625446714        3.4861289029        5.1715587132
 C        -3.0423189946        3.7663419494        5.2308359727
 O        -2.0713275625        4.8244831663        7.8931715895
 O        -0.8015527200        3.5170236681        4.1836293754
 C         0.6214605741        2.8114227866        6.2660743463
 C        -1.6225937836        2.0816010162        7.4144233673
 C        -3.6679480985        3.9520563153        3.7602953975
 C        -4.0345790331        2.6320372668        3.1153454109
 C        -4.9990297012        2.5195769143        1.9355382957
 C        -4.3270279699        2.2194780930        0.5837275941
 C        -5.1569459120        1.8756862925       -0.6946182253
 C        -6.0284895447        1.3293431298        2.2896361587
 C        -5.8699023524        3.7697329231        1.7294351789
 O        -3.4274109704        1.6509887610        3.5742413762
 O        -3.1109446652        2.0392170359        0.5192653628
 C        -4.3487576346        2.2373317155       -1.9523136265
 C        -4.0441472442        3.7739385050       -2.1377290153
 C        -2.7823914354        4.2993976785       -2.9682666944
 C        -1.4187569816        3.7614576676       -2.3942622608
 C        -0.1427824296        4.7585485973       -1.8200527039
 O        -4.9259666159        4.5424639759       -1.7897043753
 O        -1.1680485145        2.5839725128       -2.4175888335
 C        -2.7378977369        3.7803586864       -4.4258581477
 C        -2.8957287885        5.8307728142       -3.0092914455
 C         1.1146950155        3.8991230539       -1.7505558479
 C         1.0279293018        3.0399470225       -0.4584527760
 C         1.6906449783        1.5919809491       -0.3869609094
 C         0.2785240498        0.6621949984       -0.2908562146
 C        -0.0769679676        0.1418672825       -1.7053908317
 C         2.6139122312        1.3675418876       -1.5485762772
 C         2.5381458016        1.4795870900        0.9040079539
 O         0.3334884174        3.5191079373        0.4568563246
 O        -0.3960391931        0.5888691692        0.6891339333
 C        -1.3829825798       -0.6871007751       -1.7607789831
 C        -1.1024407264       -2.0447771887       -0.9602513290
 C        -1.4033510267       -3.4023872462       -1.7684369040
 C        -0.3076472650       -3.5313136946       -2.8085659704
 C        -0.3667285659       -4.5077268962       -3.9097405805
 O        -0.7341081400       -2.2397151293        0.1740684777
 O         0.5817021271       -2.6815859671       -2.8478207632
 C        -1.2270602359       -4.6218489844       -0.8402640407
 C        -3.0011972569       -3.2822975192       -2.3626776640
 C         0.8123788879       -5.4238050145       -4.1770876185
 C         0.3384443456       -6.8942769211       -4.2700025919
 C         0.1515617060       -7.7178236316       -5.5756379013
 C         1.6177686397       -8.2565692635       -6.1985100794
 C         2.7449571796       -7.0584464343       -6.3927020319
 C        -0.7625075530       -9.0536576268       -5.2262342350
 C        -0.4525802555       -6.7220505067       -6.6267986975
 O        -0.0049756599       -7.3260775616       -3.1815172767
 O         1.8322432587       -9.2917230680       -6.6834186826
 C         3.6768337910       -7.2255387321       -7.5266102131
 C         2.8825425455       -7.1248127864       -8.8925069418
 C         3.5280935302       -7.2566287196      -10.3783747948
 C         3.2608835947       -5.9219985169      -10.9894573074
 C         1.9047606023       -5.3565455775      -11.1322521093
 O         1.6867391663       -6.8428691775       -8.7070113007
 O         4.2485675810       -5.2020630178      -11.2376693454
 C         4.9201421468       -7.9056897274      -10.2766029543
 C         2.5799280675       -8.2429663904      -11.1578498679
 H         2.9993347815        7.5249121067       12.7483954041
 H         3.1999293764        5.7028515221       13.1700745648
 H         4.3757226685        6.5147354197       12.0649152081
 H         2.1513251729        5.6843263485        8.5801429113
 H         1.9348547631        4.2386347853        7.8198497898
 H         4.9763102841        4.7677254324       10.3624715804
 H         4.0165460155        4.8653870072        8.9065645205
 H         4.5511968287        3.4350424402        9.6801449322
 H         2.9607679099        2.4637951312       11.2924392719
 H         4.0408454909        3.1911677990       12.0803134732
 H         2.3203812542        3.5050436041       12.5818563617
 H        -0.1786427027        6.1716227878        8.6601679325
 H         0.6546662704        6.0319678112        7.0345572085
 H        -3.7652383563        3.1586915264        5.7604057765
 H        -3.2612587772        4.7104041717        5.7365841532
 H         1.2311109770        2.5950689497        7.1244329499
 H         1.2532349903        3.6742518757        5.8059132345
 H         0.6037732235        1.9503059501        5.5833468439
 H        -2.2581521331        1.3618295595        6.8007913475
 H        -0.9262328001        1.2851873631        7.8742505275
 H        -2.2215195222        2.5919164090        8.0605948988
 H        -2.9141250530        4.5535894071        3.1209132768
 H        -4.5782348947        4.5516040611        3.9847871040
 H        -5.3421120832        0.8103953957       -0.6682443924
 H        -6.1806454919        2.4389263693       -0.7324353139
 H        -7.0710243633        1.4473439273        2.6203621249
 H        -5.7822592187        0.7926734231        3.1797160467
 H        -6.0014060058        0.6301681300        1.4889676470
 H        -5.7127625686        4.4118336600        0.8688109873
 H        -6.8377861210        3.3326710962        1.4503449087
 H        -6.0509859685        4.5627717780        2.5221845456
 H        -3.5254102163        1.6023977690       -1.9443679731
 H        -4.9531971494        1.9050910650       -2.7551195971
 H        -0.1406911025        5.6984868617       -2.4061201883
 H        -0.4482568155        4.9795914067       -0.7986755962
 H        -2.0724785434        4.5185762216       -4.8992917110
 H        -3.7231481393        3.7408458107       -4.8152878652
 H        -2.3540683049        2.7938310922       -4.4024042101
 H        -2.2966019009        6.2943653190       -3.7670881980
 H        -3.9423857733        6.1897987149       -3.0786651312
 H        -2.5630876059        6.1676514164       -2.0334209314
 H         2.0153189168        4.6118334690       -1.6850385824
 H         1.2804400971        3.4549822672       -2.7154908086
 H        -0.4131448915        1.1862305513       -2.0800444158
 H         0.6549538844       -0.2111538836       -2.3689283396
 H         3.1404926621        2.2569937897       -1.8034139883
 H         2.0390124001        1.1539716270       -2.5085899520
 H         3.2857280947        0.5383611329       -1.3535135750
 H         3.5905465122        1.8332864392        0.9588572368
 H         2.0785273889        2.0435688621        1.6936732190
 H         2.4716360478        0.5008724581        1.2998388486
 H        -2.1701507704       -0.1018385896       -1.2429973618
 H        -1.6273215544       -0.9915873007       -2.7701643424
 H        -1.2426482200       -5.1495190955       -3.8136057379
 H        -0.4462142467       -3.9944888846       -4.9042005675
 H        -1.3848426093       -5.5195151127       -1.3879515818
 H        -1.9512751473       -4.4844401590        0.0028386111
 H        -0.2641808233       -4.7843310609       -0.4425877708
 H        -3.6274315858       -3.9517662313       -1.7120515086
 H        -3.3470070897       -2.2717727080       -2.4050290661
 H        -2.9499584065       -3.6621245088       -3.3769851128
 H         1.5711568554       -5.3408735659       -3.4148510557
 H         1.2727118100       -5.1502903613       -5.0702541328
 H         2.2812947796       -6.0627741172       -6.5777073099
 H         3.4876038010       -7.0688544978       -5.5193102385
 H        -1.6575404226       -8.7934910593       -4.5807144792
 H        -0.0844590429       -9.8195944543       -4.8335457790
 H        -1.3712527783       -9.4368424004       -6.0522379828
 H        -1.5742585978       -6.8877055613       -6.3813416430
 H        -0.0978885309       -5.6687244362       -6.5301766297
 H        -0.1824060573       -7.1045396966       -7.5821114477
 H         4.2951244372       -6.2937293607       -7.4521063829
 H         4.3239658866       -8.0626178863       -7.5159644503
 H         1.1968295568       -5.5591048371      -10.3218910209
 H         2.2289919840       -4.2477144478      -11.2914393495
 H         1.4203610706       -5.6610062589      -12.0182053411
 H         4.6083566259       -8.9434972826      -10.4563170573
 H         5.5143592664       -7.7305256455       -9.3532928401
 H         5.4786663224       -7.6034865391      -11.1087802990
 H         2.8187479054       -8.2813360729      -12.1588077223
 H         2.7608426492       -9.3191866639      -10.9778648355
 H         1.5768786574       -8.0238175960      -10.9653444719
 Na       -1.0791327883        2.5586067695        2.0613892545
