155

 C         4.1740781027        7.8426142574       12.1950293630
 C         3.6770130210        7.2290438175       10.9062474724
 C         4.8472225458        6.4373062175        9.9264070083
 C         4.0940314873        5.4366604602        8.9635288794
 C         2.8883294899        5.9508203503        8.1679683566
 C         5.5208731742        7.5083695456        8.8279725057
 C         5.9913575154        5.6679383776       10.7570081916
 O         2.5621468308        7.2850937686       10.5831927602
 O         4.5022148045        4.3062496287        8.8033704941
 C         2.7703019269        5.0704833438        6.9125884265
 C         1.3184150616        4.3838952849        6.5757305328
 C         1.4253744586        3.0830636193        5.6423351315
 C        -0.0424958775        2.6706831210        5.0859629752
 C        -1.2596014400        2.4239681746        6.0427020935
 O         0.3340016673        4.6722034511        7.1915572137
 O        -0.1684756149        2.8076596332        3.8211986221
 C         2.2794930624        3.2528983836        4.4235648701
 C         2.0192535418        2.0225247878        6.6784525358
 C        -2.6183948949        2.7546721812        5.5475707580
 C        -3.1805246787        1.8214522117        4.3662686672
 C        -4.6119113938        2.3600135354        3.7477054637
 C        -4.1429176296        3.1751526177        2.3701649185
 C        -5.0009321510        4.2563791334        1.7299355060
 C        -5.5043082754        1.2180791619        3.2214082906
 C        -5.2377146083        3.4348024673        4.6217722164
 O        -2.5738722162        0.8375076778        3.9553932053
 O        -3.1791566979        2.7973512631        1.8015283629
 C        -5.0327559825        4.2834614195        0.2364623435
 C        -3.9643406066        5.1924211271       -0.3842939056
 C        -3.6747875922        5.0343636059       -1.8938253651
 C        -2.7239842379        3.7195611414       -2.1187484259
 C        -1.1730754924        4.0480690942       -2.1088924308
 O        -3.2992005010        5.8932694543        0.2652182803
 O        -3.2959750183        2.6347309385       -2.1009828289
 C        -5.1042818367        4.9724297217       -2.7115028517
 C        -3.0188584839        6.3081236084       -2.5219328453
 C        -0.0993011128        2.9826738311       -1.9631748052
 C        -0.0677626151        2.2952114370       -0.5774135437
 C         0.8383416713        1.1452420424       -0.3498802056
 C        -0.2282096585       -0.1541665049       -0.1208941570
 C        -0.7910198120       -0.9447336735       -1.3675145694
 C         1.8200998325        0.9999262718       -1.4621052804
 C         1.6759487170        1.3208409551        1.0068834134
 O        -0.8183731260        2.6532121575        0.2862767533
 O        -0.6329338411       -0.3156803186        1.0373545247
 C        -1.9304289946       -1.8691692904       -0.9331306120
 C        -1.6260427985       -3.3384601476       -1.0668122898
 C        -2.7416101566       -4.4254480852       -0.9477616984
 C        -2.8309551757       -5.4076543662       -2.2576249439
 C        -1.5759266185       -5.3760743019       -3.0543924932
 O        -0.4011662777       -3.6324352211       -1.0848398487
 O        -3.7419100666       -6.1507950889       -2.4290922309
 C        -2.2193469346       -5.4151358854        0.1497996510
 C        -4.2274782185       -3.9575251242       -0.6837539926
 C        -1.5513835955       -6.3499331695       -4.2365517754
 C        -1.0178473912       -5.8910413930       -5.6214009144
 C        -1.3211381298       -6.5553009927       -7.0258256959
 C         0.1515447941       -7.2654960216       -7.1659000161
 C         1.3685775232       -6.5499452135       -7.7693214240
 C        -2.4905541279       -7.4939381817       -7.2521649961
 C        -1.3149562495       -5.4284990722       -8.0540092892
 O        -0.4134118919       -4.8445563319       -5.5459874297
 O         0.2609678344       -8.4541506040       -6.8679455622
 C         2.3625128963       -7.3374596274       -8.6710803329
 C         2.0540778929       -6.7384194127      -10.0799666292
 C         2.9126477318       -7.5752316847      -11.1158773806
 C         4.3281920876       -8.0903949830      -10.6591747051
 C         5.3500769697       -7.0268964730      -10.5260601698
 O         1.2936592699       -5.8633499514      -10.4344737765
 O         4.6674267973       -9.2397698193      -10.4860734428
 C         1.9284143553       -8.6138602646      -11.4774038775
 C         3.2219964918       -6.6325334578      -12.3508191960
 H         4.9051519179        7.0418404183       12.6228689376
 H         4.8375176623        8.7413418873       12.1748683329
 H         3.4862566212        8.0685839887       12.9583135967
 H         1.9421755216        5.8817782309        8.7622785698
 H         2.7776055388        7.0130412909        7.9787177880
 H         6.1508423416        8.1084990992        9.3777750401
 H         4.7216373651        7.8938491597        8.3174812552
 H         6.2083613171        6.9598609869        8.2426506143
 H         6.5387493792        4.8911764975       10.2404947720
 H         6.7689524803        6.3919175387       11.0665436350
 H         5.4986313221        5.0565780928       11.4366995439
 H         2.8805738313        5.6378620368        5.9860440914
 H         3.5283180359        4.3690575359        6.8444918919
 H        -0.9864310760        1.4155817192        6.4645577035
 H        -1.0268929338        3.1154402856        6.8644012538
 H         2.2655476688        2.3115090334        3.7797338560
 H         3.3077159258        3.3783991187        4.5757984612
 H         1.7832435247        4.0535675487        3.8496292889
 H         2.4641155028        1.2449624392        6.1916606434
 H         2.5124115893        2.3443925223        7.5169924347
 H         1.0396900179        1.4151855796        6.9375573626
 H        -2.6665837897        3.6790819088        5.0941987595
 H        -3.3416180305        2.6073194388        6.3219837665
 H        -5.9836092743        4.2202126619        2.1127425872
 H        -4.5894052353        5.2308781984        2.1946843806
 H        -6.0589593596        1.7431752022        2.4681428848
 H        -6.1227512355        0.9479107107        4.0854767716
 H        -5.0661278923        0.3487055167        2.7031390954
 H        -4.5568943038        4.2924936785        4.6759310670
 H        -6.2145967338        3.7025550754        4.1563834821
 H        -5.4968173058        3.1689174353        5.6270879317
 H        -5.0732219464        3.2615062172       -0.2057721710
 H        -5.9970194648        4.5648413788       -0.1274383971
 H        -0.9860601815        4.5572606859       -3.0611880261
 H        -0.9797054562        4.8092788284       -1.3654024902
 H        -5.0452897253        5.0947733102       -3.7941323338
 H        -5.7940138320        5.7050393615       -2.2561985777
 H        -5.5462295275        3.9215430426       -2.5494182140
 H        -1.9194007161        6.3822514323       -2.2852252074
 H        -3.1356867565        6.1999320496       -3.6082124897
 H        -3.4857954690        7.2552103724       -2.1471556058
 H         0.9330339030        3.4409543368       -2.2156419858
 H        -0.1740001486        2.1328507085       -2.6922033656
 H        -1.1281393372       -0.1439772741       -2.1148486055
 H         0.0757913466       -1.4244731918       -1.7454734286
 H         2.3183631385        0.1296627544       -1.0827416146
 H         2.4976984240        1.8880217370       -1.4459067686
 H         1.4284924728        0.8014916141       -2.4760087827
 H         2.2382518869        2.2628787346        1.0238604806
 H         1.0837841814        0.9375863812        1.8625404524
 H         2.4990508783        0.5954180562        0.7767869730
 H        -2.0911330999       -1.5856010781        0.1285938003
 H        -2.7976362340       -1.6588951837       -1.4314043013
 H        -1.4764336140       -4.2659832763       -3.2227586850
 H        -0.7875219632       -5.6097041369       -2.2738579925
 H        -3.0585879518       -6.0032214695        0.4374605909
 H        -1.8658611070       -4.9304879402        1.0042073744
 H        -1.5252025558       -6.0529122887       -0.3094025357
 H        -4.7395929120       -4.7090892853       -0.0795635928
 H        -4.2937502373       -3.0575082832       -0.0369671406
 H        -4.7846246030       -3.5908081011       -1.5756781546
 H        -2.5631849795       -6.7539868917       -4.3671498846
 H        -0.8243099243       -7.2026091076       -4.0494944855
 H         1.0036721240       -5.7780714877       -8.4398260537
 H         1.7996971621       -6.0426935167       -6.8815173590
 H        -2.9723620221       -7.6143145440       -6.3235414371
 H        -2.1548295748       -8.4623379863       -7.6178046016
 H        -3.1699049128       -7.2251582792       -8.0591889563
 H        -2.2321837955       -4.9131239476       -8.1272186310
 H        -0.5841704106       -4.7081168492       -7.5487972041
 H        -0.6942021913       -5.5620614299       -8.9747421179
 H         3.4212370726       -7.2392159995       -8.2360321335
 H         2.1731114360       -8.4414679843       -8.6439024163
 H         5.9020598801       -7.0333749922       -9.6082731951
 H         6.0709948555       -7.0727287066      -11.3048101221
 H         4.7687758353       -6.0329384818      -10.6323276769
 H         1.7024783299       -9.2929024926      -10.6908582084
 H         2.2277362529       -9.2351614635      -12.3483461776
 H         1.0293689794       -8.1311592988      -11.8713066316
 H         3.9330900272       -7.0630776436      -13.0688504379
 H         2.2374304247       -6.5364547022      -12.7385220272
 H         3.5209650498       -5.6475173947      -11.9688271660
 Na       -1.3638688297        1.7874997372        2.2169206708
