155

 C         3.9863173780        8.0109894083       11.9665724620
 C         3.7476868853        7.2293193920       10.6996099900
 C         4.9576617436        6.8457343076        9.5946907471
 C         4.5336762862        5.7612926999        8.6474188790
 C         3.2650451636        6.0002166885        7.6951008813
 C         5.3756450351        8.2690599179        8.8135008665
 C         6.1422972994        6.3762251132       10.4276347267
 O         2.6860965510        6.8045099250       10.5271491450
 O         4.8615166002        4.6462157595        8.8197157777
 C         3.2897966380        4.8480151874        6.6319279959
 C         1.9528544551        4.0021013992        6.4624755586
 C         1.9491933476        2.7804734047        5.4596102883
 C         0.4927037717        2.5001071197        4.9593603445
 C        -0.5871618842        2.3484268579        6.0101189208
 O         1.0024014925        4.1133895499        7.2139904364
 O         0.1470865512        2.6313657596        3.7983110284
 C         2.9911673560        2.9379889808        4.2693216131
 C         2.5962787485        1.6883627330        6.3348635080
 C        -1.9243257324        3.0414586466        5.6115264553
 C        -2.8297891006        2.1962515888        4.6978387226
 C        -4.1994059941        2.8619080588        4.2819005964
 C        -4.2158552987        3.3224370037        2.6643720260
 C        -5.1498763074        4.3811369954        2.0232193540
 C        -5.3874269994        1.8996381696        4.4712891311
 C        -4.5985042061        4.0451020796        5.2245769409
 O        -2.5617779484        1.1035209336        4.2498103466
 O        -3.4347044560        2.8001886303        1.9220346016
 C        -5.1770924176        4.3330265020        0.5338034811
 C        -3.9892337359        5.1870967290       -0.0040706301
 C        -3.8024533571        5.0987478053       -1.4854114121
 C        -2.8016771389        3.8783492415       -1.7216042126
 C        -1.3739133107        4.1411534774       -2.3507028386
 O        -3.3226856183        5.8860202166        0.7141230673
 O        -3.1471967329        2.7149411390       -1.4597679068
 C        -4.9952792969        4.7817056194       -2.4937646604
 C        -3.1349665620        6.4972976901       -2.0032605027
 C        -0.5142710598        2.9784239847       -2.2414352064
 C        -0.4003030093        2.3563963338       -0.7687529971
 C         0.2205222317        0.8245799983       -0.6620871596
 C        -1.0662023243       -0.0920640596       -0.2903072906
 C        -1.1284186649       -1.3119783301       -1.2030554159
 C         1.0169884577        0.4224221619       -2.0060940472
 C         1.2951681397        0.6402855201        0.4459458960
 O        -0.8732410372        2.9252568977        0.1960611165
 O        -1.5241691726       -0.0845142794        0.7944412991
 C        -2.2350482085       -2.4376331904       -1.0150921513
 C        -1.6505632344       -3.8274230009       -0.5416848155
 C        -2.6421929727       -4.9966850614       -0.8425785200
 C        -2.4814020687       -5.6449731831       -2.3456812429
 C        -1.2886492410       -5.1757197824       -3.1238712485
 O        -0.6238568541       -3.9605328304       -0.0059704607
 O        -3.3232267538       -6.4192598038       -2.7807006724
 C        -2.5207991368       -6.1145117924        0.2711561924
 C        -4.1894311927       -4.6838412408       -0.7064920112
 C        -0.7979697260       -6.1194306422       -4.2522318233
 C        -1.1330980642       -5.4285966394       -5.6290322593
 C        -1.5521584405       -5.9959776805       -6.9676004812
 C        -0.3499751348       -6.8889221737       -7.5942076051
 C         0.6287345773       -6.2565274099       -8.6195125739
 C        -2.8056990333       -6.8583720473       -6.5796346680
 C        -1.8756958396       -5.0459733476       -8.0397975950
 O        -1.0686737946       -4.1860968802       -5.4941181175
 O        -0.1479463997       -8.0069636057       -7.1531192699
 C         1.5874708935       -7.3900715237       -9.2338647927
 C         2.0401941715       -6.9337620455      -10.5689998352
 C         3.0925524647       -7.7534102167      -11.4552333143
 C         4.1499892597       -8.5728281164      -10.4999205710
 C         5.4509840400       -7.8538335699      -10.1976751685
 O         1.5383804395       -5.9173417498      -11.1161746120
 O         3.8406782516       -9.5835650509       -9.8554774948
 C         2.1487047407       -8.6832030956      -12.2220169020
 C         3.8509638338       -6.7312266672      -12.3655141698
 H         3.1101796758        8.0607852935       12.6496850368
 H         4.7100996224        7.5402484660       12.4724138341
 H         4.0767826894        9.0601923959       11.8828367764
 H         2.3959991643        6.1267509512        8.2563814371
 H         3.2483411386        7.0220609703        7.1685433254
 H         5.6811441207        8.9989555983        9.5853663032
 H         4.4775020835        8.6682837751        8.5126415395
 H         5.9702063205        7.9369044656        8.0057342264
 H         6.7215508136        5.8965593549        9.6540588673
 H         6.7566130707        7.2391152267       10.6900452736
 H         5.9322413311        5.6692083867       11.1786601793
 H         3.5910881407        5.1672044966        5.6474655086
 H         4.0540578563        4.0889483786        6.9220744694
 H        -0.7759219367        1.3017550241        6.3047404478
 H        -0.2522291258        2.7688439737        7.0081790567
 H         2.8347127414        2.0519703642        3.7030846650
 H         4.0505262171        3.1205076495        4.5333575554
 H         2.5938861629        3.6786666086        3.5473776204
 H         2.2166539621        0.7521658327        6.0196489170
 H         3.6033362771        1.6283154418        6.1333331993
 H         2.4272834491        1.8002819761        7.4987755285
 H        -1.6238037571        4.0336576160        5.1709703102
 H        -2.5249175140        3.2314118288        6.4491918988
 H        -6.2091579685        4.2654166344        2.4424219229
 H        -4.9155235665        5.2940345671        2.4327819341
 H        -6.3273362935        2.3356470956        4.0521476202
 H        -5.6959469533        1.7268856139        5.4883093734
 H        -5.1036699539        1.0487505743        3.8903211057
 H        -4.0699647982        4.9485790116        5.0442965064
 H        -5.6384255327        4.3865398337        4.9794190148
 H        -4.5577503354        3.8344909147        6.3345681630
 H        -5.2083140785        3.3913697056        0.1346326287
 H        -6.0804939433        4.7415366726        0.0883066353
 H        -1.6540834949        4.3822412917       -3.4051556503
 H        -1.0590911803        5.1870989751       -2.0184029296
 H        -4.5008313896        5.1738776086       -3.4371004149
 H        -5.8303285152        5.4493757394       -2.3571199467
 H        -5.4837497786        3.8059077804       -2.6192714512
 H        -3.8855755020        7.2514944148       -1.7643906297
 H        -2.2604467928        6.6545401131       -1.2753697831
 H        -2.7637240591        6.3836759877       -3.0512580055
 H         0.4585712731        3.0752482755       -2.5769136022
 H        -0.7709835522        2.1345813117       -2.8837695921
 H        -1.1519364064       -0.8748356309       -2.1770113902
 H        -0.0579728799       -1.6708238327       -1.1871157965
 H         1.2122530807       -0.6808584446       -1.8126672453
 H         1.9069306827        0.9207007889       -2.1967605075
 H         0.3788505573        0.6298724515       -2.8330247510
 H         2.3188843705        0.9039017435        0.1437298238
 H         0.8611753064        0.9932628651        1.4119671774
 H         1.2570205823       -0.4984646469        0.4736526766
 H        -2.8755276081       -2.2915384438       -0.0650710899
 H        -3.0333542639       -2.5429811535       -1.7324244917
 H        -1.6428750857       -4.1420659511       -3.5250263304
 H        -0.4807627253       -4.8913263151       -2.3799280125
 H        -3.2661619933       -6.9009819254        0.0795916688
 H        -2.6419069010       -5.6101982402        1.1713880402
 H        -1.5429095113       -6.4901210080        0.2223848481
 H        -4.2828999499       -3.9072720103        0.1092386645
 H        -4.6567065401       -4.5088941897       -1.6621338626
 H        -4.6033608315       -5.6123027212       -0.2854816397
 H        -1.1303530550       -7.1618220906       -4.2850037172
 H         0.2460191073       -6.2190262749       -4.2064397843
 H        -0.0238959684       -5.9780930024       -9.4325895793
 H         1.2771597704       -5.3966233679       -8.4503514435
 H        -2.4693676381       -7.9140466681       -6.3773071592
 H        -3.5132512222       -7.0047274654       -7.3704983225
 H        -3.1429774092       -6.5013599305       -5.6155487183
 H        -2.9011770548       -4.6507362454       -7.6636657742
 H        -1.3113870216       -4.1352042562       -8.1352240652
 H        -2.0353240415       -5.5824718311       -9.0148854104
 H         2.4874208358       -7.5746374820       -8.5704065551
 H         1.1677486002       -8.4379803591       -9.2053607820
 H         6.1273967561       -8.2778237919       -9.4739288947
 H         5.9371138694       -7.6692042440      -11.1522717069
 H         5.1721262565       -6.8697336242       -9.8898605606
 H         2.0229654997       -9.7368876695      -11.8709321973
 H         2.4781524798       -8.6281781795      -13.2573462097
 H         1.1373973822       -8.4025680568      -12.2575490569
 H         4.7028691701       -7.2128221012      -12.6642191088
 H         3.2274028013       -6.6576371215      -13.2706193344
 H         4.0630002290       -5.8503193704      -11.8106060080
 Na       -1.3177282281        1.9079578432        1.9865972870
