155

 C         3.4511968586        8.4334494415       11.2643127293
 C         3.7147717158        7.1906766109       10.4411784063
 C         4.9333180058        7.2638568920        9.3457041833
 C         4.9936600647        6.0567766611        8.2718936478
 C         3.7602515074        5.4602281313        7.4745622713
 C         4.7856691627        8.5855149896        8.4072286661
 C         6.3393774775        7.3939722005       10.2278511809
 O         3.0027713856        6.2086229076       10.4226159140
 O         6.1668090101        5.6503433310        8.0846477639
 C         3.7513394982        3.9245560357        6.8643131314
 C         2.5110363533        3.7322417672        6.0278073169
 C         2.4937683705        2.4212224387        5.0010350298
 C         1.0208398571        2.0279276368        4.4695529611
 C        -0.0621644167        1.9418617300        5.5156437617
 O         1.6291893684        4.5516951181        5.9696140581
 O         0.8510060449        1.8349707055        3.2751411646
 C         3.5009486874        2.6822987552        3.9338310106
 C         3.0692422632        1.2028301054        5.9418066829
 C        -1.1743564423        3.0438227874        5.1822140498
 C        -2.4670821821        2.4660745285        4.7884577996
 C        -3.6074827989        3.5388854715        4.5693728016
 C        -3.9282683040        3.5777438202        3.0472331575
 C        -5.3156010587        4.0003297432        2.5514432560
 C        -4.8049456227        3.1847612806        5.5400483620
 C        -3.3713891780        5.0385024331        4.9732996000
 O        -2.6884348295        1.2789365836        4.5288554474
 O        -3.2019901573        3.0922572204        2.1950165159
 C        -5.4373282614        4.0624282860        1.0790048223
 C        -4.2987636114        5.1775311192        0.5993288754
 C        -4.0694021602        5.2793277712       -0.8928470862
 C        -3.3291320058        3.9375197553       -1.2179470358
 C        -1.7265726942        4.1066957086       -1.3010620506
 O        -3.5916943250        5.8252801305        1.3264995784
 O        -3.9385107149        2.9172892816       -1.2963412436
 C        -5.4662757299        5.3279943964       -1.6750020173
 C        -3.1462702868        6.4790813784       -1.2046189029
 C        -1.0401729132        2.8542176926       -1.8478826829
 C        -0.4405213160        1.9443543314       -0.7182831872
 C        -0.1596190786        0.3818621503       -1.0543947952
 C        -1.2306498492       -0.6351756550       -0.5575164224
 C        -1.5899550693       -1.8493660063       -1.5290850983
 C        -0.0053727904        0.2844621326       -2.5440160593
 C         1.0167970051       -0.0910709074       -0.1968686492
 O        -0.2494929173        2.3816569108        0.4888115474
 O        -1.7474253613       -0.5572053300        0.5421712790
 C        -2.5295148393       -2.8481279978       -0.8435677600
 C        -1.8344096177       -4.2441870553       -0.5301523194
 C        -2.5289087349       -5.6012520142       -1.0795453326
 C        -2.2131920009       -5.5603200943       -2.5557522236
 C        -0.7186569720       -5.1208154755       -3.0489658240
 O        -0.8084918684       -4.2582735187        0.1216750771
 O        -3.0113962344       -5.9244237864       -3.3886747185
 C        -1.6386151484       -6.8574989512       -0.7332152616
 C        -3.9996878416       -5.6496431098       -0.7453112922
 C        -0.5872976875       -5.6454828702       -4.4485659439
 C        -1.3482640780       -4.7247300991       -5.5217499419
 C        -1.6583176528       -5.4277269585       -7.0057335525
 C        -0.4388680791       -6.2683957157       -7.5219160473
 C        -0.5174720376       -6.4337507486       -9.0301149898
 C        -2.6365709709       -6.5872316529       -6.9470297039
 C        -1.9604097550       -4.3747115067       -8.1281615915
 O        -1.4912812961       -3.5575878112       -5.4534876220
 O         0.3256301406       -6.9587700917       -6.8058944177
 C         0.4701178706       -7.5683327713       -9.6453958502
 C         1.6479068131       -6.8806198716      -10.3159439972
 C         2.5328934414       -7.8261320050      -11.1613090535
 C         3.2554907041       -8.6467436355       -9.8264192211
 C         4.7109383542       -8.2965203892       -9.4763661797
 O         1.9252231575       -5.6365921814      -10.3069361149
 O         2.6103100688       -9.5478039490       -9.4137232483
 C         1.6374683804       -8.7587427758      -12.1597434351
 C         3.5614057399       -7.1119862413      -12.1467968980
 H         3.1565126014        9.2997506618       10.7553325245
 H         2.6433054822        8.1979105051       12.0620023875
 H         4.2614369499        8.7033657402       11.9121210638
 H         2.8958801837        5.3736408444        8.0834119413
 H         3.7246818641        6.2857960600        6.6295876662
 H         4.7558051787        9.3235097507        9.1178460763
 H         4.0498236614        8.4043595374        7.6546723332
 H         5.7834143570        8.7279007781        7.9897158136
 H         6.9819543722        6.9379911189        9.4408129456
 H         6.6087054534        8.4488656037       10.6138293933
 H         6.2543847805        6.6929202714       11.0584846639
 H         4.5683490637        3.7248642775        6.2265170429
 H         3.7165671014        3.1881492930        7.6805316250
 H        -0.5277502620        0.9513549831        5.4857353979
 H         0.3617101479        2.0718685795        6.5274745297
 H         3.6137357234        1.6745145635        3.5170922985
 H         4.4327647441        3.1089363963        4.0422838684
 H         2.9517858388        3.3545868635        3.2530473791
 H         2.6351075475        0.2729506890        5.4893416850
 H         4.1971377914        1.1388196894        5.9396964800
 H         2.7648867755        1.2955328171        6.8727884756
 H        -0.7756896829        3.6093526155        4.4163776442
 H        -1.1774075013        3.8396203148        5.8932391386
 H        -6.1523974157        3.3053454332        2.9721605989
 H        -5.4729465837        4.9647454506        2.9380163511
 H        -5.5972820303        3.9302477921        5.3387882998
 H        -4.3230942038        3.1483465128        6.5081765472
 H        -5.1822433522        2.1621224197        5.4670939430
 H        -2.5672992405        5.4452541941        4.3959550136
 H        -4.2548298889        5.6607296742        4.8112289364
 H        -3.1375421402        5.3054827622        5.9458877961
 H        -5.2291944226        3.1455707753        0.6061640487
 H        -6.3584031361        4.5305227015        0.9552449596
 H        -1.4776753559        4.8674404756       -2.0180447804
 H        -1.4904224371        4.2846608227       -0.2032642744
 H        -5.3302433631        5.3279824880       -2.7773651261
 H        -6.0497977917        6.2681246064       -1.4914044355
 H        -6.2148162959        4.4669972082       -1.6529565403
 H        -2.0983984471        6.3634552275       -1.0834740862
 H        -3.3934621849        6.8084416967       -2.1660502214
 H        -3.4021193025        7.2325921871       -0.5251944198
 H        -0.1169465894        3.1018831554       -2.4139178031
 H        -1.7182224486        2.1225539798       -2.4476510710
 H        -1.9989324067       -1.3960413599       -2.4441563596
 H        -0.5826079208       -2.1995339797       -1.7638163207
 H         0.4806163221       -0.5750130059       -2.9327704794
 H         0.5740982229        1.1695258381       -3.0203582672
 H        -1.0347764986        0.2640622744       -3.0560175192
 H         1.9776613205        0.2390214267       -0.5336105065
 H         0.9498995493        0.2391837540        0.8059289661
 H         0.9514190219       -1.1760535560       -0.2688146898
 H        -2.7962171689       -2.5467721139        0.1119963862
 H        -3.3906098545       -3.0762712607       -1.5046769812
 H        -0.7245035279       -4.0523134100       -2.9537388858
 H         0.0162735396       -5.5637865148       -2.4142067385
 H        -1.6082020976       -7.4593624308       -1.6314669008
 H        -2.1960201080       -7.4328667268        0.0585912532
 H        -0.6890452164       -6.3932373730       -0.2917176688
 H        -4.5157176468       -6.3679656327       -1.3131788844
 H        -4.0383660756       -5.8311044082        0.3239810342
 H        -4.3149273161       -4.7082391109       -1.1108085223
 H        -0.8819335829       -6.7332344597       -4.5760440123
 H         0.4777507827       -5.6619290263       -4.7139372025
 H        -1.5463206338       -6.6947012208       -9.1846409913
 H        -0.3239223446       -5.5235214519       -9.6238424027
 H        -2.1035770697       -7.4828682991       -6.8271282381
 H        -3.2889876249       -6.4845396854       -7.7782468652
 H        -3.3287711690       -6.4842450708       -6.1216604323
 H        -2.7541548651       -3.7526844341       -7.8648671332
 H        -1.0598278401       -3.7206304384       -8.1338466010
 H        -2.2168534777       -4.7132104536       -9.1399094610
 H         0.8404224914       -8.1332957167       -8.6986484667
 H        -0.0379221215       -8.2534907104      -10.3501614103
 H         5.3518153147       -9.1131134034       -9.0765591382
 H         5.1571889008       -7.9935620492      -10.4331017573
 H         4.8117791495       -7.4848335808       -8.6521686083
 H         1.2566499592       -8.2122945241      -12.9938436119
 H         0.6603481467       -9.2859504613      -11.8683435668
 H         2.4271241472       -9.4531311512      -12.4468910213
 H         4.1618171580       -7.9082458186      -12.6509245163
 H         2.9895635875       -6.3952336405      -12.7469958717
 H         4.2125273692       -6.4154166994      -11.5169199484
 Na       -1.3136952547        1.6906981429        2.3449424656
