155

 C         3.1413535485        8.1903990163       10.7194351024
 C         3.8300561246        7.0476467145        9.9342468894
 C         4.7480200435        7.2999654247        8.8107248971
 C         4.7872167325        5.9698884818        7.9417404745
 C         3.5675373311        5.5379520131        7.1573795091
 C         4.5921044147        8.5931136190        8.0710995046
 C         6.1345494184        7.3090762665        9.5618878364
 O         3.4907305839        5.8593819470       10.2634339087
 O         5.8649112162        5.4023844279        7.6809299880
 C         3.7353066316        4.0140379985        6.7722585344
 C         2.7437544709        3.7103336502        5.6762188031
 C         2.8133777867        2.4108970936        5.0090790219
 C         1.2769756547        1.7866078851        4.5815402270
 C         0.3416999996        1.8029510901        5.8024042798
 O         2.0701202728        4.6443914082        5.2690590714
 O         0.9830184128        1.2958542337        3.4796543301
 C         3.5771049054        2.6741325385        3.6277629247
 C         3.5909316642        1.2963015707        5.8329020087
 C        -0.7309624707        2.9999586863        5.7236430001
 C        -1.8775619344        2.6360294622        4.7686039262
 C        -3.0974744464        3.6414280140        4.3978344263
 C        -3.7806305571        3.1496938675        2.9980292199
 C        -5.1940915915        3.8527703392        2.7708282818
 C        -4.0156580806        3.5633284661        5.5991049470
 C        -2.7110725680        5.1269451099        4.4017740398
 O        -2.1360965559        1.4693548049        4.5374287155
 O        -3.2966185805        2.4200382134        2.1979286292
 C        -5.5709515767        4.2458023050        1.3717826333
 C        -4.4672991481        5.3247187659        0.8203570720
 C        -4.2717058624        5.5632609926       -0.7034111055
 C        -3.4404247001        4.1519052209       -1.1293728563
 C        -1.9036261400        4.0051173216       -1.0238409912
 O        -3.8116936144        5.9888391234        1.6477564853
 O        -4.0732270814        3.2115936435       -1.4797155611
 C        -5.6074233736        5.5572642308       -1.4421068024
 C        -3.3671590442        6.8487064714       -0.9451620497
 C        -1.4638547662        2.6387720514       -1.7179721643
 C        -0.7997588340        1.7075168177       -0.6911939080
 C        -0.3316820172        0.2332323550       -1.0020708764
 C        -1.3596609811       -0.7184326195       -0.3436088942
 C        -2.1991380356       -1.9390690049       -1.1232128061
 C        -0.3335422963       -0.0984470817       -2.5582218056
 C         1.2058344661        0.1636156290       -0.2806701783
 O        -0.6498125377        2.0554970007        0.5174336368
 O        -1.6881111754       -0.5941549190        0.7749571984
 C        -2.6336801758       -2.9559738341       -0.0585154216
 C        -1.8180474029       -4.2400756822       -0.3575669587
 C        -2.2939893783       -5.5294633961       -0.9821927296
 C        -2.1225245634       -5.3332385222       -2.6441127022
 C        -0.5558498538       -5.1221499688       -3.1671871063
 O        -0.5574103399       -4.1849076347       -0.3895085127
 O        -3.1257038613       -5.1960344710       -3.2635598867
 C        -1.4518370564       -6.7447425696       -0.5181108866
 C        -3.8967989780       -5.7474556698       -0.8246051009
 C        -0.4551713631       -5.4932086839       -4.6197934760
 C        -1.2338997529       -4.4311554408       -5.4829224150
 C        -1.6728519061       -5.0763826905       -6.9275306920
 C        -0.5215074559       -5.9242552146       -7.8130157013
 C        -0.9233374366       -6.1723027926       -9.3103379925
 C        -2.9735561960       -5.9054089663       -6.5184600245
 C        -2.0551994711       -3.8558798551       -7.9561439218
 O        -1.7006280809       -3.4566875866       -5.0493676908
 O         0.5093258075       -6.2141406087       -7.3160650218
 C        -0.0758660263       -7.2993174469      -10.0805040307
 C         1.4078049133       -6.9488989746      -10.2626646369
 C         2.3654913136       -8.0626336059      -11.0617079516
 C         2.9241185393       -8.9422856735       -9.8239265240
 C         4.2398483208       -8.4425809421       -9.0733689331
 O         1.9392569404       -5.8741291877       -9.8902005360
 O         2.2766499139       -9.7811619140       -9.3558370520
 C         1.7030689227       -9.0761014809      -12.0842443655
 C         3.5724555043       -7.2557707476      -11.8727407348
 H         2.7233669333        8.9881091286       10.2055219722
 H         2.2816265206        7.9693501592       11.3704114334
 H         3.9421858751        8.5549043461       11.4556437178
 H         2.7476379506        5.5798268213        7.8045047246
 H         3.6265953576        6.1839577936        6.1880277138
 H         5.3201456883        9.1972581393        8.5580250249
 H         3.5033835285        8.8268895226        8.2649239708
 H         4.9147854518        8.5787882238        6.9879046135
 H         6.9605554126        7.4749725866        8.8670981431
 H         6.0968303441        8.1251613034       10.2659865613
 H         6.0914536416        6.2326174188        9.8555151499
 H         4.7747195058        3.8885367999        6.4477799675
 H         3.4466556899        3.3167555927        7.6342478537
 H        -0.4079346963        1.0024197601        5.8640606575
 H         0.9996144893        1.8871951087        6.6952080234
 H         3.4868404236        1.7646988556        2.9431804252
 H         4.5889957436        2.7339940408        3.9321986740
 H         3.3219617090        3.5709307875        3.0410548049
 H         4.0713610010        0.4801254557        5.2440798021
 H         4.2689493009        1.9076589708        6.4653943235
 H         2.8701622409        0.8491574323        6.5214898336
 H        -0.3195316411        3.9050807656        5.5185237848
 H        -1.1852032698        3.1717355359        6.7130391793
 H        -6.0017881035        3.1272314892        3.1588389517
 H        -5.1950341338        4.7247613345        3.3858399823
 H        -4.7355827350        4.3878491539        5.4712013397
 H        -3.3065768031        3.8907690336        6.3906906192
 H        -4.6477090736        2.6585469353        5.7413835066
 H        -1.8181060965        5.2956263433        3.7224785053
 H        -3.5274962391        5.8275136977        4.1253669924
 H        -2.3937589424        5.5459119688        5.3210527532
 H        -5.3415649904        3.3897511648        0.7148885928
 H        -6.5462395757        4.6558065110        1.4445492925
 H        -1.3874406941        4.7640216851       -1.5489014160
 H        -1.6153760213        3.8858408951       -0.0096209384
 H        -5.5918732317        5.7284512093       -2.4601202670
 H        -6.4173091764        6.2424776085       -1.1439317287
 H        -6.1025568025        4.6284430260       -1.1662328683
 H        -3.8396796662        7.6023595424       -1.6318166981
 H        -3.1197511034        7.3506434038       -0.0017684886
 H        -2.4832157727        6.5098285748       -1.4158645716
 H        -0.7151631446        2.7204601463       -2.5470463782
 H        -2.4207141955        1.9904970148       -1.9257949490
 H        -3.0306126272       -1.4894369058       -1.6449879427
 H        -1.4610027371       -2.4130695841       -1.6977421634
 H        -0.7896885787       -0.9712922758       -2.9017874356
 H         0.6705054268       -0.1026042719       -3.0390886080
 H        -0.9246411239        0.5878590702       -3.1931589082
 H         2.0327771391        0.7856892641       -0.6972317480
 H         1.0001705593        0.5637406728        0.6986022277
 H         1.4997967065       -0.8713246758       -0.2448404168
 H        -2.4844040352       -2.6408494034        0.8854182212
 H        -3.6901333651       -3.2896360109       -0.2527576221
 H        -0.2812920450       -4.1392848849       -2.9815096042
 H         0.0765053520       -5.7133461188       -2.5561811232
 H        -2.1250669167       -7.6142332945       -0.5248561029
 H        -0.9292996750       -6.4991091276        0.4938141426
 H        -0.8216386762       -7.0029963575       -1.4400986129
 H        -4.0956751039       -6.7334279107       -1.1883464355
 H        -4.0852091850       -5.7619612432        0.2978908933
 H        -4.4223498274       -4.8687016339       -1.2671153148
 H        -0.9592136753       -6.4764831444       -4.8972729153
 H         0.6339573211       -5.5166099697       -4.8681521835
 H        -1.9525895835       -6.4095826468       -9.4654768151
 H        -0.7082635727       -5.2266547059       -9.8355648250
 H        -2.8152201234       -6.5094541893       -5.6323188971
 H        -3.2043149004       -6.5984161157       -7.4110537922
 H        -3.8103718224       -5.1462455137       -6.3835599983
 H        -2.8331040547       -3.3306360026       -7.5616647412
 H        -1.3208937526       -3.0887459870       -8.1785706280
 H        -2.2602109292       -4.2990642132       -8.8970677802
 H        -0.0535405294       -8.1908521440       -9.4448554700
 H        -0.5781235142       -7.4117194496      -11.0143748785
 H         4.4268963669       -8.8648463408       -8.0293811515
 H         5.2134167559       -8.7600135675       -9.5506940278
 H         4.2964826117       -7.3836632469       -9.0231023906
 H         0.8243060324       -8.6916679039      -12.5811611353
 H         1.5397850804      -10.1075238457      -11.6481287324
 H         2.5531339218       -9.2105049429      -12.7520620294
 H         4.4835314295       -7.8801753913      -11.9470945969
 H         3.3339648652       -7.1632854961      -12.8906356052
 H         3.7418872603       -6.3846858911      -11.2499028519
 Na       -1.0081357085        0.7819265694        2.6332580833
