155

 C         4.1549615232        6.3187393269        9.2654500566
 C         3.5978417629        6.5027990186        7.9160646045
 C         4.3972978361        7.1144044474        6.6485514649
 C         4.8733036921        5.8480144413        5.9379433368
 C         4.0096074019        5.1061017077        4.8578788110
 C         3.4746767802        7.8764596328        5.7425123521
 C         5.6904367111        7.9694133312        7.1492487314
 O         2.4524100104        6.1791424380        7.6913487906
 O         6.0522953630        5.4922573147        6.1013599531
 C         4.5344290111        3.7282349892        4.6577017471
 C         3.4612389960        2.8817685172        3.8489435799
 C         3.6228395292        1.3956638022        3.5844640425
 C         2.2567613826        0.7545232896        4.1217262115
 C         1.8133208160        0.9340640004        5.6099719271
 O         2.6006814367        3.5359306166        3.1682916801
 O         1.5231237689        0.1472325094        3.4131874007
 C         3.8085789674        1.0580809357        2.0176392008
 C         4.6504825081        0.6377908038        4.4470917436
 C         1.0936791144        2.3176422418        5.7211654967
 C        -0.3422372239        2.3061417636        5.2708343354
 C        -1.0744704078        3.6762319082        4.7615181393
 C        -2.5743457180        3.2179142572        4.1192252470
 C        -3.7433320187        4.1288128967        4.4682698445
 C        -1.0935934565        4.6931692579        5.9022057272
 C        -0.3132689258        4.3455610214        3.5178138562
 O        -1.0041606613        1.2401799799        5.2322433534
 O        -2.5594562126        2.3141663136        3.3196543435
 C        -4.6659901690        4.1594427331        3.1411014118
 C        -3.9903952698        4.8299373865        2.0307292302
 C        -4.8420549372        4.7838357460        0.7314679479
 C        -4.3123806142        3.5048779205        0.0274496740
 C        -2.9970014382        3.7879311837       -0.8586039549
 O        -2.8774737868        5.3704079413        2.1813248232
 O        -4.6608912328        2.4331303779        0.3733100700
 C        -6.3658354885        4.8038465587        0.9335228275
 C        -4.5327830290        6.1190770022        0.0000335025
 C        -2.3465297332        2.5203153926       -1.5979866873
 C        -1.6244482897        1.7472226150       -0.5496347020
 C        -1.0460421029        0.2341987065       -1.0307063266
 C        -1.9220472419       -0.6849521342       -0.0442324868
 C        -3.1859711359       -1.5688944412       -0.4861352726
 C        -1.2134473666        0.0349413076       -2.5294873195
 C         0.4721525329        0.1303158602       -0.5367710322
 O        -1.3659743435        2.1344025828        0.5559876565
 O        -1.8073580665       -0.5714995861        1.1839639818
 C        -2.7623525673       -2.9413253125       -1.1885444411
 C        -1.6240357992       -3.7690874195       -0.4555754389
 C        -1.3376777107       -5.2582193766       -0.8119528018
 C        -1.8167385897       -5.7075908973       -2.2344751409
 C        -0.9092176070       -5.4566199513       -3.4454575674
 O        -0.8010928890       -3.1203248560        0.2571863970
 O        -2.9905448260       -5.9339588095       -2.3707810732
 C         0.1453704605       -5.6539001835       -0.6071125646
 C        -2.2805099265       -6.0535620747        0.2144569030
 C        -1.3981028681       -5.0551682115       -4.7529004698
 C        -1.1708695709       -3.5673415270       -5.2063152144
 C        -1.2753851033       -3.2755169506       -6.7151786911
 C        -0.7584705508       -4.4762553694       -7.8508374708
 C        -1.4283320748       -4.5413622947       -9.2612094933
 C        -2.8079041241       -3.0140382194       -6.9223286852
 C        -0.3954832742       -2.0902674260       -7.1354747883
 O        -0.8747296124       -2.6127597736       -4.5321909121
 O         0.0647118598       -5.3090086895       -7.5076857571
 C        -1.4413379830       -5.9697954585       -9.9463004783
 C         0.0778277050       -6.3181647238       -9.9695574100
 C         0.4998370058       -7.9383427674       -9.6594961591
 C         0.2780455179       -8.5807980221       -8.1881028069
 C         1.5712694286       -8.6775928450       -7.3577211129
 O         0.9618535743       -5.4772453833      -10.1349846669
 O        -0.7058845246       -9.0443137586       -7.8191978581
 C        -0.4174825675       -8.7212926108      -10.5255911224
 C         2.0091620438       -8.2414605654      -10.1642087261
 H         4.2881875671        7.2797906425        9.8620084018
 H         3.4929898875        5.7739871052        9.9903721826
 H         5.1238563253        5.8611692054        9.0469635088
 H         2.9567259885        5.0230119492        4.9920292023
 H         4.2272300325        5.7463127568        3.8923770319
 H         2.9251482707        8.6445618488        6.2537050063
 H         2.5765896746        7.4484987715        5.4679839832
 H         4.0067647652        8.0443250034        4.8455289709
 H         5.9162277970        8.6805402629        6.3311789813
 H         5.2767512844        8.7040507451        7.7914757493
 H         6.5828224336        7.4519850747        7.3630528551
 H         5.6049206322        3.6953449369        4.4166502797
 H         4.4462334378        3.1934187369        5.5850227701
 H         1.1666239091        0.1132649532        5.8320183433
 H         2.5963229659        1.0643955158        6.3904172392
 H         3.7383891450       -0.0164945302        1.8096926129
 H         4.7164944066        1.4117409567        1.5329651629
 H         2.9438591725        1.2474734413        1.4825804520
 H         5.6494373222        0.6242055803        3.8450904658
 H         4.8795259530        1.4202318671        5.2480674106
 H         4.5712819439       -0.3184335152        4.7932894241
 H         1.5139737790        3.2128649839        5.1889327773
 H         1.0496420097        2.5064521108        6.7149320619
 H        -4.1335555682        3.6042884354        5.3461606776
 H        -3.2997244153        5.1263523714        4.7686974750
 H        -1.1126062773        5.7475981597        5.5539043152
 H        -0.2459483174        4.5274826870        6.6363975429
 H        -1.9831855106        4.4853616642        6.5847177592
 H         0.6724012084        4.7846664436        3.7225099840
 H        -0.0044410234        3.6592327136        2.7858516899
 H        -0.9781832669        5.1098304639        3.0740263854
 H        -4.9359764383        3.0927999612        3.0193057204
 H        -5.7507273186        4.5557465776        3.3253042264
 H        -3.2481352898        4.4269256913       -1.6676042881
 H        -2.2836818463        4.2280171248       -0.2275904444
 H        -6.8188736360        4.9592034895       -0.0463046568
 H        -6.5151705438        5.5007809420        1.7527943934
 H        -6.9765092109        3.9172651225        1.0962783584
 H        -3.5384378566        6.5024293150        0.0317090034
 H        -4.9929097563        6.1267717688       -0.9567874071
 H        -5.1891431440        6.8526514378        0.5481392198
 H        -1.7031930785        2.7676381177       -2.4031455889
 H        -3.1684035318        1.9174103136       -1.9830841824
 H        -3.7684655421       -1.7321133369        0.4982060294
 H        -3.7214194452       -0.8769031753       -1.0679665958
 H        -0.6270368488       -0.8915228936       -2.7308917721
 H        -0.6063577762        0.7913799888       -2.9591412536
 H        -2.2535300973        0.0999753437       -2.7985582027
 H         0.8625531545        0.9999837238       -0.0036794451
 H         0.6399366047       -0.8294064467       -0.1512987572
 H         1.0138285400       -0.0352414713       -1.3850205649
 H        -3.7284749334       -3.6095121008       -0.9804843786
 H        -2.5396421005       -2.8815626042       -2.2799813569
 H        -0.1708814381       -4.5958235299       -3.2618819065
 H        -0.2631329448       -6.3673436433       -3.6515265647
 H         0.6492733112       -4.9139518758       -0.0213702289
 H         0.6457158327       -5.6772110693       -1.5224006236
 H         0.3851848941       -6.4760205398        0.0166984151
 H        -2.1403407923       -7.1461065276        0.2395317770
 H        -2.1988921044       -5.6584506700        1.1772029749
 H        -3.3450728206       -5.9625988355        0.0301510307
 H        -2.4046927266       -5.3780481841       -5.0428355066
 H        -0.9168791969       -5.6585580579       -5.4712052655
 H        -2.5196387413       -4.2777974373       -9.0841695745
 H        -0.9280363959       -3.7900032830       -9.9040979006
 H        -3.3058718970       -3.8811262702       -6.6773338392
 H        -3.0595483204       -2.7987903884       -7.9742903311
 H        -3.1656149415       -2.1330889606       -6.3721645733
 H         0.4701004271       -2.1034698598       -6.4734682262
 H        -0.2226824014       -2.1246972135       -8.2158428723
 H        -0.8970820710       -1.1753769569       -7.0262275087
 H        -2.2233089816       -6.6194455350       -9.4775552809
 H        -1.7571278614       -5.8307994788      -10.9514452142
 H         1.7639893642       -9.6561150354       -7.1594847181
 H         2.3311088548       -8.2432861305       -7.8731298033
 H         1.5025759386       -8.0976736128       -6.4055574842
 H        -0.4784736428       -8.1803524120      -11.4343284025
 H        -1.2704378556       -9.0724897778       -9.9921658935
 H         0.0387113041       -9.6997592331      -10.8253184513
 H         2.1579405363       -9.3877609610      -10.0145246799
 H         2.1683883806       -8.0943846280      -11.2574371222
 H         2.7626437776       -7.5748476052       -9.6461852780
 Na       -0.5149445374        0.8429053473        2.5776773807
