155

 C         5.2485274352       -4.1084552494        7.5893686489
 C         4.4651334578       -5.3112267804        6.9356313413
 C         3.0131762385       -5.6194859600        7.5108258069
 C         1.9239082964       -4.4139746720        7.3949128990
 C         1.4446380287       -4.0786730593        5.9062693270
 C         2.4145390541       -6.8910400331        6.8302661802
 C         3.1800353166       -6.0210417972        9.0698398170
 O         4.8964428541       -6.0134211923        6.0329265756
 O         1.5511329501       -3.6934393012        8.2994844167
 C         1.3255485516       -2.5684502849        5.9856227991
 C         2.7991652669       -1.9822301678        5.6287378486
 C         2.8915635064       -0.4161151496        5.7991058416
 C         1.6489419633        0.4474839794        5.3859117996
 C         1.3173055930        0.3187806424        3.8383681346
 O         3.6654142100       -2.7470289902        5.2157627411
 O         0.9272093538        1.0165342956        6.2002994015
 C         3.1949164219       -0.2578570781        7.3633502160
 C         4.1379515912        0.1107050494        4.8942358461
 C        -0.1166067084        0.8598295456        3.5613328303
 C        -0.4391146419        0.8781885005        2.0743492034
 C        -0.9677145207        2.1867544011        1.3549602780
 C         0.3925557352        2.5887483532        0.6494561988
 C         1.4161188430        3.5273215336        1.3837853714
 C        -2.0709059963        1.7246473931        0.3146924587
 C        -1.5179820998        3.2893834915        2.2568765665
 O        -0.3978319338       -0.2215702458        1.4471538776
 O         0.6674736200        2.1246956607       -0.4648614281
 C         2.7498879093        3.5060583086        0.6260819557
 C         3.7293755452        2.3025442490        1.0031517346
 C         4.9870600657        2.0433207588        0.1845316186
 C         4.7452098337        0.5478020163       -0.5537656234
 C         4.9897023696       -0.7558567554        0.1816078738
 O         3.5341295513        1.7508166674        2.0689405565
 O         4.3516043251        0.5423314495       -1.6881401139
 C         5.2651248755        3.1753366582       -0.8942620086
 C         6.1963191724        1.7911853343        1.0890727232
 C         4.4905189311       -2.0869248738       -0.5218797758
 C         3.0112333579       -1.9358396563       -1.0758904790
 C         2.4163664515       -3.0268122966       -2.1391907092
 C         1.3241113333       -2.3089185951       -2.8903435273
 C         1.3987072047       -2.0226736322       -4.3342034191
 C         3.5446585990       -3.5993285255       -2.9777977974
 C         1.5932995103       -4.1523936095       -1.3305146436
 O         2.3098982613       -1.1323475789       -0.5547530590
 O         0.3353870702       -1.9636258593       -2.2966846153
 C         0.2954416973       -1.0155849097       -4.7926061442
 C         0.1739103274        0.2043490181       -3.8390100670
 C        -1.2054479046        0.9292333672       -3.9627765346
 C        -2.3281349590       -0.0276028574       -3.2394100008
 C        -3.6447692382       -0.0636435104       -3.8825614967
 O         1.0569348188        0.6741847355       -3.1407096101
 O        -2.2412240314       -0.6088201329       -2.1817397589
 C        -1.3698442884        2.1723116821       -3.1670235281
 C        -1.5882231779        1.1945419240       -5.5379782084
 C        -4.7242369013       -0.9244450429       -3.1574736310
 C        -5.8913498090       -1.1444747197       -4.1741854712
 C        -7.3468682930       -0.5671808945       -3.7369693814
 C        -7.2552148700        0.9232906674       -4.3756035687
 C        -7.9102743542        1.4224616938       -5.5522788484
 C        -8.4264341358       -1.4471570581       -4.4203010525
 C        -7.5723472336       -0.3475550992       -2.2401029656
 O        -5.7954245624       -1.6836906603       -5.2721470135
 O        -6.4996047714        1.6654447082       -3.7313141862
 C        -7.7633577863        2.8986861970       -5.6211664442
 C        -6.2724657131        3.2804998119       -5.5775093133
 C        -5.7433563886        4.6143796183       -5.0266971112
 C        -6.5342065722        5.9271341547       -5.6072555668
 C        -6.2602461493        6.6076188410       -6.9318131280
 O        -5.5877238339        2.6570548550       -6.3645326904
 O        -7.3629241116        6.2819611243       -4.8045732483
 C        -5.9662480480        4.6748681362       -3.5019903430
 C        -4.2337293431        4.6674841874       -5.4001609081
 H         4.6625050273       -3.5446794794        8.2608418701
 H         6.2589313981       -4.3535364261        7.8635843180
 H         5.3236055661       -3.3889804836        6.7356723525
 H         2.1382529577       -4.4250857287        5.1532069861
 H         0.4762931492       -4.5185226395        5.7391102803
 H         2.3135745609       -6.7424869673        5.7789868711
 H         1.4269151772       -7.0897826304        7.3155962716
 H         3.2072028346       -7.6063087073        7.1433681365
 H         3.4180769659       -5.1000203090        9.5614443729
 H         2.2317744353       -6.2463136865        9.5439495525
 H         3.8471667407       -6.8650671049        9.1170624395
 H         0.7190724706       -2.1108844521        5.1429845228
 H         0.9983997144       -2.1973110225        6.9459880047
 H         2.0036720629        0.7580487891        3.1584533796
 H         1.2198745662       -0.7597453514        3.7082178105
 H         3.6385435496        0.7366540710        7.5712317692
 H         3.9116527454       -0.9832081520        7.8072288983
 H         2.2475221226       -0.2524212280        7.9901825979
 H         5.0173347237       -0.4751386963        5.1020251265
 H         3.8544863041       -0.0478841592        3.8019077531
 H         4.3448018025        1.1741679683        5.0751394324
 H        -0.1548869476        1.9312662388        4.0178294865
 H        -0.8167148656        0.2907132539        4.1133860697
 H         1.0454779828        4.5689230898        1.2750607376
 H         1.5612059152        3.1375065744        2.4224996127
 H        -1.5197476506        1.2346831887       -0.4651617055
 H        -2.6025499463        2.6229016448       -0.0026056473
 H        -2.7534787827        1.1657380991        0.8598549609
 H        -2.2555353257        2.8321183144        2.9032339973
 H        -0.6861468460        3.6833590569        2.8711712577
 H        -1.8373975445        4.0794314846        1.6532384570
 H         2.7662881321        3.6483325732       -0.4825839506
 H         3.2647675724        4.4000498862        0.9860058379
 H         6.0389445343       -0.9598194895        0.2858820458
 H         4.4763556507       -0.8117756352        1.1236618815
 H         6.1272971308        3.6951473572       -0.4560267494
 H         4.4503022815        3.8534751330       -1.1379770037
 H         5.5750521997        2.5755740346       -1.7613318801
 H         6.4397574682        2.6312558326        1.6949872396
 H         5.9800301374        0.9589550230        1.7981908598
 H         7.1161515851        1.5054667014        0.5324426774
 H         4.5933067508       -2.9457160643        0.2382541594
 H         5.1670082122       -2.4688278429       -1.2378068805
 H         2.3202045304       -1.4684170828       -4.4255942343
 H         1.4484154503       -2.9458453859       -4.9763252732
 H         3.9614751345       -2.7882145412       -3.6505560075
 H         3.0837840698       -4.3613450349       -3.7146199080
 H         4.3406477203       -4.1581087284       -2.5361446377
 H         1.2900111450       -4.7769761957       -2.1174036463
 H         2.2483720689       -4.6616466966       -0.5598424276
 H         0.7572298239       -3.7633436694       -0.7843291984
 H         0.5525318029       -0.6310239616       -5.7958827674
 H        -0.6560803042       -1.5496323846       -4.8960448539
 H        -4.1480903149        0.8564368418       -4.2211778131
 H        -3.6431988150       -0.5454928399       -4.9307612594
 H        -0.7014971257        2.2553886383       -2.3319830664
 H        -2.3482677160        2.4097411290       -2.8797454126
 H        -1.1258975494        3.0247176901       -3.8320393223
 H        -2.1793993500        2.1524465531       -5.5006263924
 H        -0.7155418659        1.3927174496       -6.1145160270
 H        -2.1882514851        0.2935831324       -5.9733143251
 H        -5.0644801186       -0.4374651271       -2.2283252525
 H        -4.2527711121       -1.8038573765       -2.8787919207
 H        -7.4977291113        1.0484536327       -6.4499220988
 H        -8.9562497965        1.0687613817       -5.5911018506
 H        -8.0522488463       -2.5435460528       -4.4081296893
 H        -8.5110057515       -0.9876399758       -5.3772905937
 H        -9.4003222136       -1.3728699123       -4.0122983275
 H        -6.8941126012        0.4777793696       -1.9748099092
 H        -8.5553231408        0.0804299451       -2.2298011955
 H        -7.4996170409       -1.2861579327       -1.7041754568
 H        -8.2426156120        3.2138390988       -6.5836987342
 H        -8.4746762120        3.4298862339       -4.9191565081
 H        -5.1816530160        6.7247273606       -7.1355414591
 H        -6.6496032809        6.1656551107       -7.8214613258
 H        -6.7850181454        7.5780739399       -6.9911093391
 H        -5.2468631533        4.0511904907       -2.9674058551
 H        -6.9024686013        4.1424893800       -3.3031182961
 H        -6.2395822806        5.6475786242       -3.0888013556
 H        -3.6699893739        5.3315601829       -4.7909400932
 H        -3.8872021532        3.5973120622       -5.4783140239
 H        -4.1596179968        5.0340520045       -6.3770261130
 Na        0.1842959846       -0.2895212559       -0.8236801879
