155

 C         4.2138008529        5.6288267660        8.2393464620
 C         3.4351590210        6.2923988935        7.0253158566
 C         4.3718134119        6.6372886892        5.6756329647
 C         5.0090020495        5.3267410205        5.1869500888
 C         4.5214104513        4.7089709030        3.9762339928
 C         3.5876203104        7.4511508065        4.8301482453
 C         5.4783925580        7.5380091432        6.3379597538
 O         2.2645058012        6.6326018705        6.9419149780
 O         5.8510879796        4.7446588108        5.8819285466
 C         5.1961286336        3.3328789230        3.7198071249
 C         4.5868259176        2.4826745690        2.5070379309
 C         3.8086452897        1.1008919344        2.9007971184
 C         2.4136383549        1.4362291484        3.5157068225
 C         2.2513318296        1.1377902649        5.0631022764
 O         4.6111872476        2.9786442420        1.4304638657
 O         1.6263905408        1.9433654685        2.7181145068
 C         3.5955795590        0.3541639556        1.5122281222
 C         4.7072986551        0.0904597292        3.7179017215
 C         1.3286765694        2.1429378083        5.8719913131
 C        -0.1403190791        2.1071920400        5.2676158735
 C        -0.8400937062        3.5578819365        5.1541183655
 C        -2.1353444951        3.6141681466        4.2581376135
 C        -3.2910835232        4.4827067216        4.5963843867
 C        -1.2023512131        4.0935637394        6.5671621015
 C         0.2479979742        4.5356405452        4.5871012309
 O        -0.6174777454        1.0234949849        5.0319082069
 O        -2.1689179392        2.8423474413        3.3337441684
 C        -4.5286183030        4.0976611900        3.7935857830
 C        -4.5855270472        4.9389006591        2.4437064775
 C        -5.3300713466        4.2490054378        1.2145162440
 C        -4.4149018909        3.1694621763        0.5916958913
 C        -3.2386564872        3.6318160483       -0.3453583881
 O        -4.0730167292        6.0490370854        2.3779157632
 O        -4.6240282845        2.0729948277        0.9776922110
 C        -6.8138460255        3.6527924484        1.5930282703
 C        -5.5197420518        5.4468190489        0.2097962514
 C        -2.6837499071        2.5033227225       -1.1790509032
 C        -1.5684066870        1.7763463012       -0.2285212015
 C        -0.8822610516        0.5310156774       -0.8221110347
 C        -1.5791016774       -0.5445147184        0.2414315540
 C        -2.4618574479       -1.7095117765       -0.3282130016
 C        -1.3734142097        0.2674910030       -2.2185924877
 C         0.6193222797        0.5852130634       -0.6666353717
 O        -1.0811720287        2.3507262264        0.7354982688
 O        -1.3977108611       -0.5224068228        1.4521982727
 C        -1.8035956507       -2.8824098062       -1.2863513744
 C        -1.0266284094       -3.8503073023       -0.3842746153
 C        -1.5313135560       -5.3909221675       -0.4849946481
 C        -2.1306388038       -5.5317567368       -2.0189111104
 C        -1.0696294216       -5.2705533741       -3.0156083685
 O        -0.0996755994       -3.6471259932        0.2839089669
 O        -3.2473162027       -5.9612549895       -2.1876781979
 C        -0.3158141285       -6.2303390003       -0.0018648877
 C        -2.7553185837       -5.3656705686        0.5030163017
 C        -1.5757974256       -4.8715205622       -4.4009127161
 C        -1.0025325338       -3.5468224826       -5.0653010456
 C        -1.2127572480       -3.0759728296       -6.5594026079
 C        -1.2753093900       -4.2102355483       -7.6259724471
 C        -0.8931008541       -3.8813371740       -9.0311079528
 C        -2.6525004874       -2.5180397570       -6.6013881623
 C        -0.0708119672       -2.0638820927       -6.9383113351
 O        -0.2536969709       -2.7548859063       -4.4524329998
 O        -1.8626997130       -5.2407882070       -7.4272930646
 C        -1.1719065732       -5.1794416345       -9.9178771716
 C        -0.0379324183       -6.1265578256       -9.7712657749
 C        -0.2676298550       -7.6448906744       -9.5571991549
 C        -0.2132451459       -8.1277491092       -7.9947609012
 C         1.0835191743       -8.0529663133       -7.2835046843
 O         1.1060512729       -5.7006214926       -9.4696008726
 O        -1.2815056355       -8.6679810402       -7.5104263973
 C        -1.7771076041       -8.1214981908       -9.8317492789
 C         0.8403355179       -8.5429284421      -10.2710243642
 H         4.6235268533        6.4336334122        8.8313058222
 H         3.5278364671        4.8497087340        8.7029963866
 H         5.0409488399        4.9685589857        7.8621958498
 H         3.4727841945        4.5386265192        4.0636691329
 H         4.8235888275        5.4925483256        3.2929123727
 H         3.4605419217        8.3984313583        5.2017928429
 H         2.7213859588        6.9341260186        4.5157841417
 H         4.1021113023        7.7912753196        3.9389832999
 H         5.7528692944        8.3333048415        5.6197981983
 H         4.9876088929        8.0026883392        7.2436769434
 H         6.3274969424        7.1144168271        6.8588198787
 H         6.2217140157        3.5516317329        3.4318846344
 H         5.1471843706        2.7797863833        4.6943304031
 H         1.8069222566        0.1338938395        5.1204304531
 H         3.1619865329        1.1177723202        5.6700716448
 H         3.0651622085       -0.5616862026        1.5410334884
 H         4.5646633648        0.1470133464        0.9626391888
 H         3.1700716538        1.0403193875        0.7525173876
 H         5.5922943672       -0.0699542211        3.2450463493
 H         4.9920257502        0.4759035112        4.6618886420
 H         4.1217770316       -0.8674892229        3.9343515840
 H         1.7402131144        3.1553817455        5.8775247803
 H         1.4055450202        1.8601134032        6.8541520215
 H        -3.5949802474        4.3224271137        5.5820684211
 H        -3.1327024706        5.5758625375        4.4645818202
 H        -1.3407502582        5.1627019627        6.5202633310
 H        -0.4484297770        3.9251046575        7.3762728110
 H        -2.1417365223        3.6815584479        6.8770116875
 H         0.9190893675        4.8459072514        5.4265580117
 H         0.8897081282        4.1061963177        3.7772804692
 H        -0.1849339214        5.5592978176        4.2780061994
 H        -4.4785137424        3.0080609407        3.6750678965
 H        -5.4436125416        4.4305502524        4.3418233475
 H        -3.5722204972        4.4571597003       -1.0463738456
 H        -2.4488409548        3.7790410063        0.3556861980
 H        -7.2472814447        3.2489286091        0.6724709988
 H        -7.5268146891        4.4411791227        1.6813592851
 H        -6.7708155504        3.0663049797        2.5568282015
 H        -4.6484658402        5.9993172723       -0.1893260740
 H        -5.9002030297        4.9410105533       -0.6981271856
 H        -6.2952616179        6.1533999067        0.6656719651
 H        -2.0820900935        2.9797843786       -1.9690378606
 H        -3.5220875690        1.8768781360       -1.6753544216
 H        -3.1486187907       -2.2115433317        0.3317772042
 H        -3.1101831598       -1.1654476276       -1.0865059343
 H        -0.7741531985       -0.4783613847       -2.6878001671
 H        -1.2621089949        1.2580265821       -2.7608060344
 H        -2.4022965233       -0.1945333611       -2.3263765615
 H         1.0353060349        0.1730673089        0.2456469874
 H         1.0777237127       -0.1540014482       -1.3681744322
 H         1.0884063337        1.6096080425       -0.8441636979
 H        -2.6522091642       -3.2477577507       -1.8022076791
 H        -1.1246734964       -2.1746479720       -1.9417093928
 H        -0.3897847781       -4.4885582393       -2.7018599171
 H        -0.4731123290       -6.1564326799       -3.1077123467
 H        -0.3926901049       -6.6135726451        1.0462154398
 H         0.6208260395       -5.7097208241       -0.4288210610
 H        -0.3269973346       -7.1310909997       -0.7392970273
 H        -3.0946477725       -6.4368800170        0.5096390116
 H        -2.5308130868       -5.1571416330        1.5750766408
 H        -3.5282658644       -4.6912141308        0.1088046079
 H        -2.6641592864       -4.7158572179       -4.4070416001
 H        -1.3986045458       -5.6915746354       -5.0475244286
 H        -1.6124433060       -3.2316846007       -9.4821002580
 H         0.1468085055       -3.5296769467       -9.1841733016
 H        -3.2542382075       -3.2440200810       -6.0342017038
 H        -3.1065133812       -2.3269316259       -7.5911411636
 H        -2.8190616917       -1.6767984228       -5.9181657390
 H         1.0151146288       -2.3661246075       -7.0659376787
 H        -0.2875055018       -1.7219140866       -7.9223043151
 H        -0.1087289829       -1.2994756642       -6.1590580307
 H        -2.2252470940       -5.5970249693       -9.7820877583
 H        -1.3322069022       -4.9841465958      -10.9914270473
 H         1.6209966817       -7.0225919627       -7.2030971321
 H         0.9762198250       -8.5520483622       -6.2533526252
 H         1.7693957242       -8.7080745370       -7.7976040595
 H        -2.0131158815       -8.0978286659      -10.9258563473
 H        -2.5325022683       -7.5830995652       -9.3328473917
 H        -1.5552071767       -9.1924631460       -9.6222214095
 H         0.4037441002       -8.8374193787      -11.1422371914
 H         1.8013052819       -8.0520998563      -10.3399467049
 H         1.0696774776       -9.4494357785       -9.7627084194
 Na       -0.4974410289        1.1026771315        2.7471020217
