155

 C         7.0134846921        6.3671261136        4.4206253585
 C         6.9047366514        6.2446525559        2.9081225359
 C         8.2497931667        5.8957436996        2.1748809071
 C         8.1780925922        4.4611551429        1.6987368751
 C         7.3416888415        4.0825877158        0.5146477745
 C         8.3137992711        6.8542811341        0.9609592585
 C         9.5346116245        6.0909000121        3.0554817837
 O         5.8867304667        6.2472658956        2.2205519556
 O         8.9138304248        3.6097910985        2.2235546667
 C         6.9321458164        2.7019568532        0.7258745741
 C         5.3871147423        2.4935286218        0.7737148063
 C         4.6500755776        1.3935724328        1.6862461382
 C         3.1205398224        1.7705636389        2.2132099444
 C         3.0200360255        2.7636717406        3.3737576150
 O         4.8274086216        3.3475565214        0.1736805615
 O         2.1400676018        1.2047852251        1.7493613005
 C         4.5728508618       -0.0765941803        1.0302533405
 C         5.4565147730        1.1248525967        2.9880067667
 C         1.5937466411        2.8797004638        3.9722111777
 C         0.9708509338        1.7057732291        4.7185659945
 C        -0.3447514968        1.9633434511        5.7915851217
 C        -1.6472605383        1.1833525445        5.2314648520
 C        -2.7999421283        1.0676402502        6.3188411050
 C         0.1639818436        1.7854058861        7.1690027078
 C        -0.9074560997        3.4340399930        5.5878158877
 O         1.4497105803        0.5945007895        4.5610574248
 O        -1.7346996458        0.9203450060        3.9855480117
 C        -4.2266753302        0.9764359383        5.6941917957
 C        -4.5565577393        2.2771636580        4.9979237213
 C        -5.5473796364        2.1380956158        3.7222800968
 C        -4.8140629100        2.6736613718        2.5220117584
 C        -4.0807702645        3.9577894847        2.4387127114
 O        -4.1283069138        3.3355691660        5.3709533141
 O        -4.7262379850        2.0027591200        1.4698434510
 C        -5.9549912366        0.6633596932        3.4478995817
 C        -6.8043611889        3.0608437450        4.1921166110
 C        -3.2553598660        4.1525385381        1.0975623720
 C        -2.2762185950        3.0854110567        0.8842136282
 C        -2.2879801060        2.1640541444       -0.4892735427
 C        -1.8813452046        0.6683434577        0.1363049664
 C        -2.9234528951       -0.0511099978        0.9490355717
 C        -3.6493102470        2.0888757115       -1.2382415146
 C        -1.0883767818        2.6610990501       -1.4073529485
 O        -1.4093043588        2.9520635158        1.7767027236
 O        -0.7394351409        0.2631198400        0.0362906192
 C        -3.5477894262       -1.2890880974        0.0107360185
 C        -3.0548114741       -2.6034227578        0.7259393822
 C        -2.5063797738       -3.8138905492       -0.2282862701
 C        -3.5728544391       -3.9705763404       -1.4255523658
 C        -3.1556340395       -4.0827025118       -2.8788543039
 O        -3.2372100584       -2.7474187673        1.8859268729
 O        -4.7440025244       -4.1040900937       -1.0724937244
 C        -0.9465640759       -3.5231277647       -0.3700685081
 C        -2.7194138118       -5.0714351850        0.6365756826
 C        -3.1741510389       -2.6772733059       -3.6398939950
 C        -1.9231463628       -2.3709048523       -4.3922220578
 C        -2.0205404893       -1.8465847743       -5.9240277471
 C        -2.5153794165       -3.1216531061       -6.8412235863
 C        -1.6133414661       -4.0139806569       -7.5796443704
 C        -3.0536011404       -0.8045319669       -5.9619191186
 C        -0.5840982908       -1.5040727876       -6.3959201132
 O        -0.8750789033       -2.1655417451       -3.8446350062
 O        -3.7152396524       -3.2624485135       -7.0154341199
 C        -2.4125346857       -5.2239309516       -7.9140135249
 C        -1.5282048009       -6.2956995775       -8.4424539888
 C        -2.1156303257       -7.8579354197       -8.6891765874
 C        -1.5751171254       -8.9011513838       -7.6600396638
 C        -0.2200181277       -9.5855635006       -7.6717300101
 O        -0.4336872930       -6.0031261849       -8.8967023674
 O        -2.4906335705       -9.4600894923       -6.9833489063
 C        -3.6433117713       -7.7478376993       -8.7648290043
 C        -1.7393532583       -8.5446367176      -10.0652262694
 H         7.7902941837        7.2686270212        4.7117319023
 H         6.2265583146        6.5197385321        5.1351033749
 H         7.5302617881        5.4669572058        4.7080386906
 H         6.4126278668        4.6295569552        0.2695114686
 H         8.0349431559        4.0225242548       -0.2902523375
 H         8.7194707093        7.8015654333        1.2241305662
 H         7.3218157366        7.2600943016        0.6595790604
 H         8.7863585932        6.4916111417        0.0592780339
 H        10.2609557129        5.8864318698        2.2408470368
 H         9.4784228940        7.0145004137        3.6623471154
 H         9.7373404253        5.3060824562        3.7798908118
 H         7.4268320367        2.0872734012       -0.0063054450
 H         7.2559304774        2.3959401985        1.7715110057
 H         3.6262651268        2.3552055772        4.2069645075
 H         3.4660447871        3.7205683105        3.2979821852
 H         3.9300954120       -0.8052857637        1.5951066026
 H         5.5788887864       -0.3716880512        1.1202970394
 H         4.1278462422       -0.0763073534       -0.0045369095
 H         6.4277012007        0.6391034090        2.8872881667
 H         5.7899982224        2.1439193320        3.2876087010
 H         4.9414344053        0.8179244620        3.8151981474
 H         0.9860567271        3.1124412106        3.0953775475
 H         1.6544115861        3.8250460136        4.6735761109
 H        -2.4855714770        0.0834669350        6.8536126442
 H        -2.5263883641        1.7918742360        7.0281737772
 H         0.5503890049        2.7291146270        7.5472139676
 H         0.9356927049        1.0843046977        7.2356839296
 H        -0.5233582280        1.3928566633        7.9052942685
 H        -0.4068031107        4.3404544027        6.1177837869
 H        -0.7900587437        3.5929382652        4.4400126377
 H        -1.9076495523        3.4767023322        5.9817361724
 H        -4.1456951685        0.2368707634        4.9392137744
 H        -5.0035442644        0.6357002897        6.4282074984
 H        -5.0068874822        4.6729930693        2.4324810981
 H        -3.5312092004        4.3146468825        3.3258650931
 H        -6.6971554797        0.5139807435        2.6272560606
 H        -6.3567837837        0.0875688231        4.2710719590
 H        -5.1673691421        0.0644298812        3.1016278011
 H        -6.3494107124        3.9537875364        4.6402407766
 H        -7.3722575209        3.3783439670        3.3711049314
 H        -7.4733925343        2.6988062344        4.9690200237
 H        -2.7346618096        5.0943687662        1.2667766165
 H        -3.9641085398        4.3718106078        0.2981706968
 H        -2.4197671779       -0.5498367005        1.7850241224
 H        -3.7352955480        0.7945162825        1.2111196820
 H        -3.9346958096        3.0754229670       -1.5578797770
 H        -4.5059854247        1.7386016985       -0.5266136709
 H        -3.6282529061        1.5282014084       -2.2422551769
 H        -0.2096066009        2.5000311408       -0.7278288649
 H        -1.0936075014        2.2756094117       -2.3969350672
 H        -1.2271812441        3.6723822195       -1.3710303977
 H        -4.6781744359       -1.2257685502       -0.0707913821
 H        -3.3976894245       -1.2944951772       -1.0703166279
 H        -2.0856192334       -4.3564682017       -2.9092351105
 H        -3.8351705533       -4.7911544770       -3.3563384479
 H        -0.6976433386       -2.8088312998       -1.1062411984
 H        -0.3506242057       -4.3964531132       -0.6876079693
 H        -0.6248321724       -3.2866948062        0.6676799963
 H        -2.3434953332       -5.1293360004        1.6900783906
 H        -3.8295416951       -5.4159121312        0.7885158688
 H        -2.0842030547       -5.9242098611        0.1953399501
 H        -3.3348693829       -1.8321874504       -2.9462655149
 H        -3.9390491176       -2.7095980309       -4.3681535586
 H        -1.3118861527       -3.5493320171       -8.4891241470
 H        -0.7023962945       -4.1291218599       -7.1228039846
 H        -2.5241390249        0.1596381614       -5.7174617996
 H        -3.7811336491       -1.1643404242       -5.2320249020
 H        -3.5673937958       -0.7217505067       -6.9180436595
 H         0.0468452214       -2.1193394194       -5.7922769667
 H        -0.4650405693       -1.4591268979       -7.4514650458
 H        -0.3133683055       -0.4216198801       -6.1440296206
 H        -3.0394379159       -5.3641302271       -7.0498260508
 H        -2.9803685874       -4.7231494352       -8.7035256266
 H         0.3119051260       -9.5080865206       -6.7014189155
 H        -0.4121028400      -10.5815467922       -7.8563018865
 H         0.4946189400       -9.1369011810       -8.3448773257
 H        -3.9496169204       -8.3581873857       -9.5958895670
 H        -4.0678814088       -6.6988386891       -8.7985066324
 H        -3.9255077270       -8.2037206921       -7.7956758880
 H        -0.7472610857       -9.0181257595      -10.1802188634
 H        -2.4103800842       -9.3616717583       -9.9989789945
 H        -1.8817289937       -7.9767417393      -10.9549815345
 Na       -0.0388616915        1.0581548902        2.3172162428
