155

 C         7.4122386915        6.1551130377        3.9939925815
 C         7.2707817074        6.0255747312        2.5283572264
 C         8.6507309708        5.6636942645        1.7117029414
 C         8.3326260939        4.1976544221        1.2117225085
 C         6.9777182039        4.1364269750        0.1373484513
 C         8.8076095771        6.5294043170        0.3791333793
 C         9.9816503745        5.6979649476        2.5786111217
 O         6.2609325995        6.2412169781        1.8880531584
 O         8.8149543392        3.1814417025        1.6548874312
 C         6.1545521896        2.9569928591        0.3221928534
 C         4.9144278686        2.9930875362        1.1475739671
 C         4.3073755172        1.5804491644        1.8570677615
 C         2.9103467884        2.0904658808        2.3638813961
 C         2.8309028832        3.1207078777        3.3660171882
 O         4.2026577598        3.9588123685        0.9665521752
 O         1.8951577554        1.7104788861        1.8088851800
 C         4.3602588196        0.4058690037        0.9705235924
 C         5.2135139211        1.2127035532        3.0394870216
 C         1.4222365763        3.4447142671        3.9507691090
 C         0.9338650440        2.1662647459        4.6619684888
 C        -0.0125381920        2.0452060550        5.9197739337
 C        -1.3080715887        1.0205643121        5.2912747457
 C        -2.4248136708        0.7002722635        6.2288176776
 C         0.5868872751        1.2274458930        7.2009010343
 C        -0.4815712130        3.4458502020        6.5019729259
 O         1.2523575418        1.0714805865        4.2215756118
 O        -1.0616052840        0.2532903292        4.3378163500
 C        -3.7079672987        0.6877131070        5.4667135065
 C        -3.9935702216        2.0464732306        4.9225734140
 C        -5.1533055624        2.3272281919        3.9183235197
 C        -4.6403501071        2.9230835115        2.6225064147
 C        -3.8829650448        4.2978390543        2.6499698930
 O        -3.3919629366        3.0277584257        5.3518649705
 O        -4.6501117438        2.1655712076        1.6641468520
 C        -5.9261007267        1.0836120618        3.6892757147
 C        -6.0048528592        3.3942519884        4.6614304728
 C        -3.1012351559        4.3745041778        1.2728575570
 C        -2.3451079704        3.0909785896        1.1772303018
 C        -2.2659984286        2.1431223514       -0.1358299714
 C        -1.9020265617        0.6605913348        0.4114799156
 C        -3.0273384109       -0.1761560846        0.9200530156
 C        -3.4899427843        2.3512931366       -1.0079598800
 C        -0.9889573725        2.8663599908       -0.7498875907
 O        -1.6863752919        2.6669324123        2.1805868161
 O        -0.7707025347        0.1919102110        0.3011990169
 C        -3.5201626938       -1.4553060725        0.0456427097
 C        -3.4124979460       -2.8175368049        0.7662302051
 C        -2.8388738023       -3.8839006266       -0.2512013354
 C        -3.7149935113       -3.9510073519       -1.6378098691
 C        -2.8644077652       -4.0106914386       -2.9635158325
 O        -3.5414863139       -3.1051928603        1.9160265496
 O        -4.8996602645       -4.1245327419       -1.6611501089
 C        -1.4186656568       -3.5835434976       -0.5082313830
 C        -2.7359610571       -5.2477829087        0.4882873639
 C        -3.2786526692       -2.8697268997       -3.9271699193
 C        -2.1207384001       -2.2177591921       -4.4667111115
 C        -2.0975270944       -1.9385807028       -6.1846107040
 C        -2.6602441738       -3.1728535558       -6.8009269242
 C        -1.8420721992       -4.3637543563       -7.0966748347
 C        -2.9926288244       -0.6207494659       -6.3384222174
 C        -0.6355399429       -1.7255638283       -6.5536498319
 O        -1.1946739633       -1.7254960745       -3.8415074091
 O        -3.8919630828       -3.3273581150       -6.7771316849
 C        -2.6981425259       -5.6199234232       -7.5921691510
 C        -1.9294867970       -6.5302488561       -8.6592926931
 C        -2.3917693612       -7.9653674452       -9.1008613197
 C        -1.7154731574       -8.8684033997       -7.7929374150
 C        -0.1932777389       -8.8116012314       -7.5661637479
 O        -0.7352367277       -6.1337150056       -8.6547832800
 O        -2.3859974436       -9.4604704252       -6.9797889461
 C        -3.9433581260       -8.2799996152       -9.0133290131
 C        -1.7406381418       -8.7395392331      -10.2179483539
 H         8.2099037853        6.7732583932        4.2491232095
 H         6.6162279473        6.5752306039        4.7021501902
 H         7.7088248729        5.1300504642        4.3966764546
 H         6.4324317188        5.1121620178        0.3029464611
 H         7.3470005946        4.0933169090       -0.8832605645
 H         8.3351406554        7.4025362247        0.4293917755
 H         8.6538762746        6.0428443702       -0.5179269466
 H         9.8300513831        6.7626227152        0.1961036933
 H        10.7521639392        5.2822743953        1.7893966486
 H        10.2494426871        6.7678356166        2.8008696859
 H        10.0370149555        4.8991573095        3.2244124102
 H         5.8103614171        2.5390975224       -0.5915649903
 H         6.8706420342        2.2117038041        0.7866749693
 H         3.5184351136        2.9817292869        4.2277217561
 H         3.2835514348        3.9979693252        2.8855491979
 H         4.1242030371       -0.3565829453        1.7551818852
 H         5.3991065898        0.2769953511        0.6814477817
 H         3.6816895456        0.4058608553        0.1476120045
 H         6.2011919004        1.0096784882        2.8355748735
 H         5.1452248016        1.8729309877        3.8577488164
 H         4.8656636956        0.2695317094        3.4765324356
 H         0.8055219473        3.6055466695        3.1126451552
 H         1.4434094568        4.4112584067        4.5927320099
 H        -2.1540761181       -0.4131933607        6.4747670420
 H        -2.3103830329        1.2455959896        7.1136886931
 H         1.4701541751        1.6390617987        7.5085935106
 H         0.5877301187        0.1540125797        7.1197878090
 H        -0.0090082395        1.4499090498        8.0766787104
 H        -1.2873655363        3.9326564542        5.8749516127
 H        -0.6290517058        3.3098453384        7.5684111171
 H         0.3092511055        4.1208512365        6.2772700053
 H        -3.7450094451        0.0286582914        4.6492595666
 H        -4.5837729738        0.4554104417        6.0850835645
 H        -4.6868209109        5.0996315572        2.9366098911
 H        -3.1751067958        4.4069740625        3.4798023435
 H        -6.7923618007        1.1561463526        3.1178540429
 H        -6.2783510740        0.8426972179        4.6678780966
 H        -5.5510380188        0.3397520148        3.0496188660
 H        -5.4288614215        4.3623805794        4.7785224525
 H        -6.9526890383        3.6273284249        4.2043162388
 H        -6.2231800373        2.9929076417        5.6381940008
 H        -2.4576936676        5.2369507304        1.3125718213
 H        -3.7586148298        4.6322779441        0.4405822215
 H        -2.6281818293       -0.4993208345        1.9063545177
 H        -3.8519537671        0.5058806956        0.8347280258
 H        -3.8273486654        3.3721099314       -1.3455723328
 H        -4.3608318500        1.7450605985       -0.6374406672
 H        -3.3317403327        1.7609725630       -1.9609077206
 H        -0.2646680859        3.1312108155        0.0110035539
 H        -0.6083968655        2.2541814775       -1.5200259528
 H        -1.4338016870        3.6967282709       -1.1555082757
 H        -4.5991538750       -1.2536174290       -0.3874007055
 H        -3.0093762318       -1.4997558137       -0.8886861689
 H        -1.8440707610       -3.6583532880       -2.7979270769
 H        -2.9856020206       -4.9793239658       -3.4384491368
 H        -1.2639983649       -2.5966872203       -1.1125013291
 H        -0.7309862369       -4.3617496102       -0.8132128268
 H        -1.0629230986       -3.2083261176        0.5513073650
 H        -2.0387923399       -5.1829694430        1.2977607592
 H        -3.6073269095       -5.5058156890        1.1186750664
 H        -2.3985491763       -6.0396173826       -0.1626904176
 H        -3.7461868294       -2.1044903260       -3.3581695034
 H        -3.8781070165       -3.1224958267       -4.7417493769
 H        -1.0645667165       -4.2280745087       -7.8026726349
 H        -1.3982822106       -4.6368964275       -6.1669819517
 H        -2.8372975486        0.0458121208       -5.4532568143
 H        -4.0148475000       -0.9600842854       -6.4970414658
 H        -2.5589581725       -0.1677070353       -7.2066613347
 H        -0.3286542387       -2.7361115098       -6.6286431223
 H        -0.5566512700       -1.2994748484       -7.5081611028
 H         0.0087012493       -1.2054000399       -5.8554334236
 H        -2.8861654511       -6.1367870141       -6.5952614393
 H        -3.5521968750       -5.2452694136       -8.1238371342
 H         0.2437132392       -9.4423740774       -6.8702062336
 H         0.3534919609       -8.9450936195       -8.4707164316
 H         0.0069808830       -7.7874146372       -7.0106971857
 H        -4.0555168747       -9.2344977062       -8.6346064054
 H        -4.2172273847       -8.4001472186      -10.0894778817
 H        -4.3970759324       -7.4074175250       -8.6862054930
 H        -0.6369751841       -8.7290133554      -10.0779867879
 H        -2.0997573736       -9.8269527652      -10.2722331115
 H        -2.0635146483       -8.3317383674      -11.2092550860
 Na       -0.2867316026        1.0175244243        2.3931667612
