155

 C         7.8017827454        6.0614531241        3.8766177952
 C         7.4912511575        6.0929364445        2.3686655273
 C         8.5811559671        5.4675449043        1.4738292464
 C         8.0038463967        4.0176298627        0.8875194666
 C         6.8012627667        4.0693333069       -0.1875085996
 C         8.8839611222        6.4140147980        0.2287469345
 C         9.9515218691        5.1400794004        2.2292516864
 O         6.5752163848        6.6869047943        1.8302177430
 O         8.5834478840        3.0110180063        1.2913082312
 C         6.0170113048        2.7015723657        0.1857053276
 C         4.9139438397        3.0623118084        1.1245126393
 C         4.1800906116        1.9637945856        1.9088581853
 C         2.7871221540        2.3333004471        2.2914517952
 C         2.5880518445        3.3351184281        3.3774711334
 O         4.6112333901        4.1826538315        1.3329291513
 O         1.8164012600        1.9065395804        1.6555764417
 C         4.0103623565        0.7559496729        0.8689941815
 C         5.1562169557        1.7044724247        2.9934759048
 C         1.3324722846        3.3910213508        4.2350373152
 C         1.0468371510        2.0351313557        4.8522407390
 C         0.1153203309        1.8045220876        6.1545381610
 C        -0.9531352308        1.0243124436        5.5443703594
 C        -2.3383175444        0.6659675125        6.3520741950
 C         0.9709372585        0.8988525730        7.0244059764
 C        -0.5113439828        3.1355242593        6.6878803776
 O         1.6851469378        1.0908761303        4.4272269119
 O        -0.9657678755        0.3666118158        4.5265258378
 C        -3.4483896531        0.7009702275        5.3202866850
 C        -3.8943992223        2.2097956167        4.9822389860
 C        -5.2115078713        2.4746724215        4.2469926218
 C        -4.8624075937        2.8893563553        2.7545389373
 C        -4.1109393283        4.3154666290        2.6325177934
 O        -3.0530911672        3.0482092809        5.1497416715
 O        -4.9778550172        2.1764210704        1.7624349587
 C        -6.2146840070        1.3372447515        4.4053397011
 C        -5.9012759230        3.6741564421        4.9511729505
 C        -2.9898289378        4.3050094112        1.5161062853
 C        -2.1990376759        2.9974619990        1.4381427810
 C        -2.1348660667        2.1491616060        0.1045918529
 C        -2.0306687034        0.6542013523        0.5037872447
 C        -3.2989601085       -0.2480713502        0.7127182227
 C        -3.3322041353        2.3498574023       -0.8753497213
 C        -0.9035095391        2.6808782623       -0.7651460286
 O        -1.6078382055        2.5496319483        2.3576120279
 O        -0.9492114042        0.1424777800        0.3835020843
 C        -3.4582642083       -1.4203689561       -0.2731693873
 C        -3.3648924864       -2.8418033214        0.5051486681
 C        -2.7336738269       -3.9810676290       -0.2904948187
 C        -3.5194112149       -3.9636306220       -1.6546878620
 C        -3.0394246393       -4.1339757586       -3.0988832745
 O        -3.8894085338       -2.8789949736        1.5974587736
 O        -4.7089694571       -3.8872269455       -1.3327477512
 C        -1.1566038019       -3.6565562687       -0.3669653416
 C        -3.0613494002       -5.3549286129        0.3459476737
 C        -3.3967690764       -2.8444642153       -3.8426903918
 C        -2.1212746092       -2.1954635596       -4.6564429198
 C        -2.1023393350       -2.2037142136       -6.1767759010
 C        -2.9031696807       -3.4012244429       -6.7692247660
 C        -2.0294222274       -4.6491546840       -6.9782802954
 C        -2.9362040421       -0.9260853290       -6.7210674244
 C        -0.6577554250       -1.9498073831       -6.7150704229
 O        -1.3462549191       -1.5263149411       -3.9982224401
 O        -4.0954240788       -3.2979184180       -6.9760538788
 C        -2.8363269431       -5.8142727339       -7.7025539180
 C        -1.9030766554       -6.5858026875       -8.4934209169
 C        -2.3816531697       -8.0088447137       -8.8438893276
 C        -1.6691053233       -8.8847464716       -7.6722801817
 C        -0.1823673876       -8.5947678636       -7.3690067823
 O        -0.9598531936       -6.1569802151       -9.0677970590
 O        -2.4359295241       -9.4774326988       -6.8819854072
 C        -3.9508792043       -8.1341639541       -8.9533578831
 C        -1.7590358302       -8.2552819286      -10.2467959324
 H         8.4941454046        6.9880820587        4.1281577774
 H         7.0862253330        6.2934850842        4.5679112870
 H         8.3318428037        5.2402507534        4.1860829291
 H         6.3696065636        5.0432216607       -0.1392320322
 H         7.2708341468        3.9223061629       -1.1902356482
 H         8.1329402253        7.3027364888        0.1230345594
 H         8.9695302002        5.7002549756       -0.6517675917
 H         9.8445361234        6.9622215557        0.0888545899
 H        10.6707398424        4.8676669182        1.5243852620
 H        10.3941767860        6.0748353925        2.5483467909
 H         9.8186279938        4.1944950844        2.8298601868
 H         5.5126165252        2.2924890540       -0.7701454589
 H         6.7329196292        1.9529238272        0.5091983338
 H         3.3105586006        3.2379685326        4.1720151499
 H         2.8772359329        4.3050880934        2.9609262045
 H         3.3742453659        0.0528712792        1.3512613827
 H         4.9935058927        0.3740830393        0.6217539181
 H         3.6062632092        1.2124756488       -0.0876288550
 H         6.0695441896        1.1286067934        2.5279285862
 H         5.4541483626        2.5918808541        3.6207851334
 H         4.8410083049        0.9937239240        3.7247372810
 H         0.4478519249        3.9637714164        3.7715877450
 H         1.6907607142        3.9297667676        5.0665667019
 H        -2.3009456144       -0.3264060261        6.6934379835
 H        -2.5871666186        1.3489222339        7.2317338918
 H         1.4834868929        1.5980534038        7.7936841198
 H         1.7061416671        0.4480756671        6.3606770140
 H         0.4500203246        0.1582781759        7.6015472052
 H        -0.0379458107        3.9557947223        6.1823655799
 H        -1.6095464914        2.9799957061        6.5993866837
 H        -0.2191677434        3.2588762985        7.7576997012
 H        -3.0057233357        0.6088215617        4.2731345642
 H        -4.1451823402       -0.1462991796        5.3264540243
 H        -4.8003570218        5.0526402785        2.3926695056
 H        -3.7009925183        4.6742828819        3.5902439703
 H        -7.2381595650        1.4402136588        3.9221487471
 H        -6.4640576972        1.2430639788        5.4462978918
 H        -5.9458957347        0.4870486085        3.8415224525
 H        -5.3812531200        4.5715553223        4.8223288004
 H        -6.9015617216        3.8145536319        4.5287156703
 H        -6.0304239312        3.3725001420        6.0136618787
 H        -2.4539890372        5.2643696612        1.6670939060
 H        -3.5557427759        4.5041706952        0.6248080944
 H        -3.0479346262       -0.7119083828        1.6425925339
 H        -4.2612050537        0.3961947927        0.6821494448
 H        -3.6441855127        3.3139592967       -0.7697793707
 H        -4.2030712047        1.6863832832       -0.8690343279
 H        -3.0889977236        2.2379945009       -1.9234170064
 H        -0.0931679715        1.9905706229       -0.4182473221
 H        -1.1681140734        2.3519930969       -1.7854703555
 H        -0.7305795407        3.7972080390       -0.7201893564
 H        -4.4339480150       -1.4644960171       -0.6170523668
 H        -2.8093431782       -1.2796384657       -1.2246819753
 H        -1.9870946383       -4.3618529478       -3.1945435668
 H        -3.7064705108       -4.8367338039       -3.5990989221
 H        -1.1323307126       -3.0432258972       -1.1662227359
 H        -0.6921654318       -4.6156050167       -0.6476163055
 H        -0.6379722334       -3.1444203144        0.3484714853
 H        -2.9331329827       -5.5517345406        1.4457872151
 H        -4.1846470928       -5.4807326672        0.2849717183
 H        -2.6012192251       -6.2011440738       -0.2534651059
 H        -3.7826634906       -2.1130534628       -3.0787243660
 H        -4.2566448716       -3.0963733088       -4.5320040370
 H        -1.2464729266       -4.6191135211       -7.7462901192
 H        -1.6544116093       -4.9784649585       -5.9965317471
 H        -2.4537770148       -0.0739321362       -6.2698641682
 H        -3.9576091930       -1.0485166315       -6.3357874622
 H        -2.8159352414       -0.9945606882       -7.8258959951
 H         0.1173857923       -2.7492068346       -6.6959576990
 H        -0.7269865621       -1.5763412253       -7.8062724580
 H        -0.3250220432       -1.1523464134       -6.0161694084
 H        -3.2480848089       -6.5525007590       -7.1017639208
 H        -3.5684311048       -5.3412056130       -8.4218568545
 H         0.4964614896       -9.4904382267       -7.5377421282
 H         0.1780455974       -7.8618597511       -8.0618778524
 H        -0.0299171787       -8.4221229271       -6.3871445402
 H        -4.1269126642       -8.7697006585       -8.0523111333
 H        -4.3370230425       -8.5818860437       -9.8337300989
 H        -4.2875527282       -7.0764275333       -8.9927003552
 H        -0.6884180078       -8.2288955458      -10.1334332718
 H        -1.9899854751       -9.1817048055      -10.6036999314
 H        -2.0986544633       -7.5290517583      -10.9361185043
 Na        0.0652979639        0.9208219421        2.4692747811
