155

 C         9.2828258435        5.0762799108        2.0638245351
 C         9.6830040777        5.2384020569        0.5887170889
 C         8.7382091681        4.4364927871       -0.3171572375
 C         7.2172188396        4.4250943720       -0.0949631271
 C         6.3401130178        5.7850162288        0.1620996845
 C         8.7789707995        5.0231875988       -1.8383679695
 C         9.1620063141        2.9862410891       -0.3932495547
 O        10.4597721467        6.0897015296        0.1663078779
 O         6.5963670260        3.3393074008       -0.1194652421
 C         4.8648486948        5.3035260263        0.3261350827
 C         4.5965293618        4.6649683538        1.7584542610
 C         4.1532097380        3.1116587124        1.9847447070
 C         2.9069194058        3.1706487250        2.9659208620
 C         3.2559378779        3.4874525643        4.4875053080
 O         4.7998006604        5.1829547237        2.8265236592
 O         1.7766334720        3.1491875972        2.4826216707
 C         3.7611061627        2.4409034926        0.6026463941
 C         5.2581344130        2.3205906356        2.6087407919
 C         2.3921929894        2.8636962251        5.5938254177
 C         1.6503219163        1.4029487187        5.3211546927
 C         0.8412013220        0.8471541294        6.4605372951
 C        -0.7672670266        0.8162510959        5.8262438761
 C        -1.8638412339        0.5632459601        6.9840792890
 C         1.3104589713       -0.6982190909        6.7478634197
 C         1.0741281964        1.5489864415        7.8549810094
 O         1.5522093177        0.8739407628        4.1761572741
 O        -1.0392709908        0.9950925857        4.6397307021
 C        -3.2106350692        1.2685674467        6.8581340700
 C        -3.0421664872        2.7940082529        6.6689860771
 C        -4.2813074941        3.4452072154        6.0395164421
 C        -4.2446901391        2.7718920779        4.5742114316
 C        -3.5073128085        3.5754721379        3.4336431474
 O        -1.9501588967        3.3108919634        6.8443560516
 O        -4.6630821162        1.6206765325        4.4844759574
 C        -5.6317610054        3.0960325152        6.7574359325
 C        -4.1306348877        4.9467184067        6.1537562751
 C        -3.7192762764        3.0026159396        2.0358877570
 C        -2.4324634298        2.9149735275        1.2057261205
 C        -2.5151424197        2.0462555091       -0.1081481950
 C        -2.4937398853        0.6357263105        0.7985555387
 C        -3.6178625908       -0.2492174159        0.5815768700
 C        -3.8338685432        2.4264286073       -0.9645367090
 C        -1.2237275150        2.1122790303       -1.0523909878
 O        -1.3048900165        3.1427894935        1.6524507271
 O        -1.6059149912        0.4874590925        1.5994335692
 C        -3.2577904741       -1.3603226436       -0.4178594712
 C        -3.3040217109       -2.8045230384        0.3797912894
 C        -3.7217098307       -4.0596762981       -0.5743304267
 C        -4.0255269416       -3.7276637295       -2.1636576033
 C        -2.9896778109       -3.4958030812       -3.2216883118
 O        -3.1292335348       -2.7870562348        1.5324777079
 O        -5.1930483267       -3.7882310001       -2.5068466323
 C        -2.5320748850       -4.9927772379       -0.6030875284
 C        -4.9350949819       -4.7500040010       -0.0766770802
 C        -3.5764338719       -2.8567748937       -4.4671003104
 C        -2.5028222280       -2.3271726167       -5.4142723860
 C        -2.9730405185       -2.2012453039       -7.0132235446
 C        -3.3275699736       -3.7572042947       -7.4077120308
 C        -2.3090938593       -4.8972141601       -7.1925622018
 C        -4.1784883003       -1.2476623989       -7.2361907125
 C        -1.8403062865       -1.6279807005       -7.8622749524
 O        -1.5010936987       -1.7280128271       -5.0894011836
 O        -4.3560534621       -3.9313693161       -7.9581886475
 C        -2.8527611313       -6.2836291510       -7.3942993807
 C        -2.4110884141       -7.0373629805       -8.6932806739
 C        -2.6538079713       -8.5851593637       -9.0072196396
 C        -1.7555905119       -9.2385391944       -7.8021738115
 C        -0.2977051047       -8.8724512596       -7.6563486161
 O        -1.8207208273       -6.3428085603       -9.4931778778
 O        -2.2752500199       -9.6595635537       -6.7203697951
 C        -4.1192623932       -8.9451959529       -8.9156579309
 C        -2.0719506811       -8.9682435083      -10.3793908020
 H         8.8335600467        4.1857175090        2.3755261957
 H         9.9195080768        5.4293395003        2.8357050504
 H         8.5452237752        5.8391306090        2.2733751908
 H         6.7391805854        6.1825229573        1.1174601371
 H         6.4148546783        6.6714008298       -0.5403935188
 H         9.5975870122        5.7130549421       -1.9565887870
 H         7.8272071726        5.5110428731       -2.0451065491
 H         9.0313527670        4.2049158646       -2.5120814523
 H         8.5238434471        2.5262955983       -1.0782197722
 H        10.2590629797        2.9124248231       -0.5512941043
 H         8.8829365587        2.4588509554        0.6000236941
 H         4.2811140863        6.1936805778        0.5500673020
 H         4.4098805480        4.7615973552       -0.5731260980
 H         4.2200156833        3.1775789727        4.7059885342
 H         3.2286596758        4.6263212108        4.5304481476
 H         3.4474879643        1.4333372635        0.8121893419
 H         4.6776030047        2.5157607368        0.0257959743
 H         2.8876006630        3.0764976520        0.2211074703
 H         6.1646447628        2.2801190508        1.9756391110
 H         5.5817950514        2.6737812540        3.6229679002
 H         4.9927417503        1.2961215088        2.6928064461
 H         1.7369905039        3.6113641699        6.0726199923
 H         3.1816619945        2.4425999878        6.2912400826
 H        -2.0356861412       -0.4543315166        6.8977650259
 H        -1.4203675313        0.7982479484        8.0026951189
 H         2.3483549269       -0.8249344501        6.9452046211
 H         1.0238555219       -1.2238333560        5.9057762141
 H         0.7911192946       -1.0674745884        7.5927017139
 H         2.0678604497        1.8623574315        8.1839381827
 H         0.3915760125        2.4720796608        7.9681143464
 H         0.7682995573        0.9525161079        8.6922449462
 H        -3.6972491667        0.8147228295        5.9428669971
 H        -3.8700845397        1.1066628336        7.7106494134
 H        -3.7287464300        4.5581473940        3.5246341434
 H        -2.4643612720        3.4187743961        3.7010654894
 H        -6.5359121651        3.4739855596        6.1988561735
 H        -5.5985768523        3.4857756073        7.7575537967
 H        -5.7563114285        2.0478946469        6.6586241343
 H        -3.4413327654        5.3281029894        5.4608220598
 H        -5.1342482402        5.3631394974        5.9957122615
 H        -3.9854105571        5.0522922508        7.2177352102
 H        -4.3898851929        3.5434983636        1.4211472221
 H        -4.0855856185        1.9565457895        2.2017838544
 H        -3.8173456700       -0.6759463949        1.4820170585
 H        -4.5135914097        0.3574579665        0.2943375518
 H        -3.8432006748        3.4368834122       -1.2783031337
 H        -4.8144573803        2.0330449820       -0.6390316787
 H        -3.6678374563        1.8165065705       -1.8489457749
 H        -0.4268699559        2.9220361094       -0.7234930518
 H        -0.8573910196        1.1333328354       -1.1862461946
 H        -1.5971645224        2.4735632037       -1.9790827884
 H        -4.0732490395       -1.4965945951       -1.1419717973
 H        -2.3054767700       -1.1155720413       -0.8687849423
 H        -2.1477362298       -2.8642316869       -2.8569759053
 H        -2.5754299616       -4.5042664961       -3.3743176576
 H        -1.6493215663       -4.5818379777       -1.0082138320
 H        -2.8534926807       -5.8640222563       -1.1758332276
 H        -2.2131296445       -5.2630532962        0.4142854882
 H        -4.8351612924       -4.9763444543        1.0281303448
 H        -5.7932957481       -3.9686607694       -0.1895194198
 H        -5.0890605932       -5.6864171975       -0.7396568448
 H        -4.0624092136       -1.9448989410       -4.0546822724
 H        -4.3897220736       -3.3972664359       -5.0274751675
 H        -1.7175571488       -4.6346712999       -8.0519733253
 H        -1.5804839569       -4.7850069092       -6.4038219668
 H        -4.0366066437       -0.4294678860       -6.5647260591
 H        -5.0843009061       -1.8358836081       -7.0630727047
 H        -4.1777421150       -0.7934998360       -8.2431309861
 H        -1.0097427699       -1.5628772651       -7.2090592256
 H        -1.7830008057       -2.1499480425       -8.7985654311
 H        -1.9755863243       -0.5827792548       -8.1704450169
 H        -2.9244017725       -6.9124203514       -6.5024810616
 H        -3.9092949888       -6.1587087355       -7.6343082359
 H         0.2069124322       -9.7816448942       -7.5069652947
 H         0.1501302369       -8.4997111007       -8.5172295201
 H         0.0439308979       -8.1567603107       -6.7994270020
 H        -4.7667937273       -8.1359818489       -9.2249159871
 H        -4.3855285561       -8.9467982955       -7.9275905800
 H        -4.3358697130       -9.8780879302       -9.4141830159
 H        -0.9458534555       -9.2590003226      -10.3573736071
 H        -2.5543048639       -9.8604247841      -10.8376550717
 H        -2.2342610974       -8.1117843612      -11.0963068662
 Na        0.0906904488        1.7495155735        2.7282458216
