155

 C         9.3261007965        4.9891817286        1.6563787466
 C         9.6969550873        5.1173031353        0.2864242308
 C         8.6882750003        4.4592996814       -0.7738170626
 C         7.1309691710        4.4328266301       -0.3409220966
 C         6.5774948205        5.7499450021        0.1658201566
 C         8.9070398286        4.9288269295       -2.2875830690
 C         9.1813001780        2.9219292612       -0.7614393219
 O        10.7266281525        5.5846067050       -0.1043002854
 O         6.4959594595        3.4401237731       -0.0830995752
 C         5.0914389848        5.6304244310        0.7825264927
 C         4.7352642442        4.8097790723        2.1197278143
 C         4.1430433540        3.2880693548        2.0642626124
 C         3.0003387502        3.1584160701        3.0874155407
 C         3.4376450456        3.2892540782        4.5037563844
 O         4.8732577374        5.4455841517        3.1344282674
 O         1.8316466537        3.0810690131        2.7202330159
 C         3.4558195324        2.9849413590        0.7233254280
 C         5.3357381716        2.3978642751        2.2720943792
 C         2.3130488344        2.9567839402        5.4928148320
 C         1.8673884026        1.4948257189        5.1730135496
 C         0.9301318525        0.7177935013        6.4824591581
 C        -0.7588012823        0.8538610098        6.0785870729
 C        -1.7085257066        0.2559863830        7.2118205842
 C         1.1012695672       -0.8146015366        6.3420342800
 C         1.1530553996        1.3808576169        7.8488126839
 O         1.9921702765        0.8319055595        4.1945071415
 O        -1.1606593862        1.1831333258        5.0165132166
 C        -2.9937584408        1.2639897406        7.3420260220
 C        -2.9165536775        2.7719252326        6.9216305260
 C        -4.1499739897        3.5476608835        6.2213028460
 C        -4.1253424093        2.8899045687        4.8338945959
 C        -3.3152367965        3.5786935926        3.6699879162
 O        -1.8317532163        3.3281887373        6.9628432863
 O        -4.5662711697        1.7926033111        4.6425624604
 C        -5.4620824041        3.2951143383        6.9587612870
 C        -3.8802081081        5.1167911709        6.1007629626
 C        -3.7789921528        3.0304689094        2.2889884634
 C        -2.6069952373        2.8799478791        1.3204799796
 C        -2.6587698103        2.0433507796       -0.0316992828
 C        -2.4400883096        0.6348805949        0.6243069550
 C        -3.5792205481       -0.4751286482        0.6612077765
 C        -4.0642568335        1.9667968570       -0.9615519953
 C        -1.3397944370        2.4586169517       -0.8854275100
 O        -1.5766927158        3.3994618336        1.6294651914
 O        -1.4178902523        0.3130866064        1.1924864294
 C        -3.6059093901       -1.4560921881       -0.5449346652
 C        -3.4303357373       -2.8690884614        0.0346138327
 C        -3.7937053315       -4.1464519018       -0.7786197597
 C        -4.2727317514       -3.6778566802       -2.1501130094
 C        -3.1576585910       -3.2214432154       -3.2185047760
 O        -3.1354602202       -3.0705420698        1.2244918303
 O        -5.3474215923       -3.1728439994       -2.3187328007
 C        -2.5995733486       -5.1123926552       -0.5095124804
 C        -5.0676152385       -4.7336610513        0.0801974471
 C        -3.7338454663       -2.7123697530       -4.5479191627
 C        -2.5763850323       -2.4109382457       -5.6643794507
 C        -3.0700196849       -2.2615237242       -7.0950716024
 C        -3.5201211264       -3.6506775121       -7.4199713789
 C        -2.3588247059       -4.7153509969       -7.3115599954
 C        -4.3955620250       -1.3529087087       -7.1907298920
 C        -1.9240992695       -1.7116376993       -8.0893604148
 O        -1.4074967560       -2.3488425806       -5.2937925993
 O        -4.6265320335       -3.9709883300       -7.8090358274
 C        -2.8853866891       -6.1341291854       -7.6326351763
 C        -2.2912054842       -6.9184926880       -8.9076570696
 C        -2.5768969665       -8.3984757198       -8.8839467737
 C        -1.8010879610       -9.2124930010       -7.7253058472
 C        -0.3044042608       -9.1285830016       -7.9085222752
 O        -1.5716473908       -6.3944465229       -9.7328745387
 O        -2.2122217738       -9.9927142019       -6.9741618446
 C        -4.0545792336       -8.6865354996       -8.5308079579
 C        -2.1128908379       -9.3253689018      -10.1005688429
 H         8.2988300609        4.3594381191        1.7288402982
 H         9.9954344481        4.5372398060        2.4221664264
 H         9.1166449485        5.8571571454        2.2536676274
 H         7.3248855280        6.0876433395        0.9423664650
 H         6.4495000957        6.6434168588       -0.4266488622
 H         9.2187009145        6.0163720415       -2.4583960118
 H         7.9380596802        4.7545884915       -2.7370309253
 H         9.7761917812        4.3338935494       -2.6785671413
 H         8.3955499025        2.2994210030       -1.3008478730
 H        10.1565199799        2.8568089422       -1.2109354053
 H         9.1573871790        2.5814704912        0.2098061405
 H         4.6291008325        6.6128313945        0.8451461768
 H         4.6203690003        5.0277576770        0.0515765491
 H         4.3269403005        2.5820108766        4.6826262017
 H         3.7810233269        4.2912970215        4.6282604399
 H         2.9578065457        2.0096373455        0.8863916022
 H         4.3513270577        2.9597008500        0.0934618341
 H         2.7878491266        3.7104619868        0.4685900051
 H         5.8087279251        2.1831165744        1.2687380499
 H         6.0809468510        2.9258386753        2.8744211241
 H         5.2500463286        1.3895322052        2.7405400577
 H         1.4292094548        3.4459023473        5.1587886065
 H         2.4832994528        3.1541276110        6.5299112086
 H        -1.9463261172       -0.8595292355        6.9579889224
 H        -1.2456783753        0.3329090984        8.1477089380
 H         1.8644784260       -1.2886563769        7.0706318766
 H         1.3719124170       -1.0680910427        5.2633294617
 H         0.1157127486       -1.2729788154        6.6426261837
 H         2.0051980125        1.1870619120        8.4435884224
 H         1.1102166357        2.4073579555        7.7757828062
 H         0.3556309726        1.1618397305        8.5853895223
 H        -3.7980487325        0.8597546828        6.7573614545
 H        -3.2131419573        1.2644673784        8.4508337504
 H        -3.4060614019        4.7386950107        3.7158890065
 H        -2.2748761883        3.2849397654        3.8127222402
 H        -6.3218594932        3.7168677617        6.4936593532
 H        -5.3699175022        3.9413007897        7.8838782364
 H        -5.7133703115        2.1974028940        6.9581145176
 H        -2.7817639515        5.1461654777        5.9123895239
 H        -4.4144732113        5.5285553688        5.2699484441
 H        -4.1607752644        5.5233081090        7.0413877972
 H        -4.6937949389        3.5150555437        1.8070514011
 H        -4.0529873350        1.9913164491        2.5041651316
 H        -3.3358294258       -0.8791657984        1.7225508938
 H        -4.5507456320       -0.0560319721        0.6716782580
 H        -3.8875093604        2.8533873724       -1.5152676644
 H        -4.9340156000        2.0549076245       -0.3042371339
 H        -4.2577310365        1.0184618132       -1.5437081863
 H        -0.6710426872        2.7575109633       -0.1228293611
 H        -1.0116207119        1.5241485926       -1.4493208491
 H        -1.5411543932        3.3879568662       -1.4874309300
 H        -4.5574149055       -1.4443971231       -1.1561823198
 H        -2.7705559243       -1.0996325520       -1.2176696722
 H        -2.6985170185       -2.4145790739       -2.6140064487
 H        -2.3784811634       -3.9956768377       -3.4672727764
 H        -1.7214591141       -4.5123495395       -0.3947563837
 H        -2.4726165889       -5.7556101818       -1.4449742519
 H        -2.6232051433       -5.7126236486        0.3209083078
 H        -5.2130678304       -4.2392868194        1.0023687741
 H        -5.9286382740       -4.5986154622       -0.5215474936
 H        -4.8754599808       -5.7379562617        0.1855557918
 H        -4.3666107574       -1.8062371447       -4.3792320791
 H        -4.3821360268       -3.5002044829       -4.9578137030
 H        -1.4114001456       -4.3694111395       -7.8415088515
 H        -1.9847299766       -4.5743382186       -6.2658480254
 H        -4.2171919642       -0.2461825567       -7.0147291459
 H        -5.1339368707       -1.7857673060       -6.4800726211
 H        -4.7148907418       -1.4770121328       -8.2161537798
 H        -0.9552056606       -2.3336433803       -8.1076415591
 H        -2.4901297742       -1.5792680256       -9.0574884105
 H        -1.5073531147       -0.7545381680       -7.7310102181
 H        -2.5435749614       -6.8564216463       -6.8496905660
 H        -3.9859599058       -6.2052653220       -7.5289645367
 H         0.3361057659      -10.0144306175       -8.3804668862
 H         0.1140505064       -8.2487505168       -8.4664739501
 H         0.0032498855       -8.8869908724       -6.9604559679
 H        -4.6433555972       -7.8550631460       -8.1329324569
 H        -4.1808781053       -9.4664511885       -7.6691833286
 H        -4.5159152261       -9.1585487268       -9.4154688179
 H        -1.1006908368       -9.3596639593      -10.1776427803
 H        -2.4056902263      -10.3271314572       -9.8412893585
 H        -2.5239297234       -9.0769211107      -11.0486548768
 Na       -0.2091485879        1.8533916964        3.0323844754
