155

 C        10.0839645717        3.2928703822        0.4353938209
 C         9.7780010708        4.3545861606       -0.6406573637
 C         8.3527525545        4.3339584656       -1.3232216313
 C         7.2060589737        4.5522012107       -0.2944842589
 C         7.2172878493        5.3845134720        0.9285780364
 C         8.2044230389        5.4495340381       -2.4625634143
 C         8.1843561073        2.9105807368       -2.1227610326
 O        10.6141597130        5.0987724484       -1.1202753436
 O         6.1297736528        3.9647255452       -0.6321887694
 C         5.8843951325        5.6208236549        1.4660065973
 C         4.9950496590        4.6883063326        2.4227628616
 C         3.9006528894        3.6747007538        1.8137795447
 C         2.7034710480        3.6928319405        2.9109484976
 C         3.1348846115        3.4430362858        4.3072384696
 O         5.1875545241        4.6110207014        3.6059227760
 O         1.5223150188        3.7075064577        2.4975109445
 C         3.2591742077        3.9973448347        0.5018523736
 C         4.4923511330        2.1902395934        1.7188911833
 C         2.1499557331        2.7646448104        5.2765674782
 C         2.0321451367        1.3053684794        4.9656821835
 C         1.4023220081        0.3738429137        6.1094494265
 C        -0.0594375282        0.9484480066        6.2448322141
 C        -0.9391292905        0.8678452072        7.4638644921
 C         1.4691216109       -1.0736608448        5.4834585704
 C         2.0454051463        0.5910876879        7.4938416203
 O         2.2810052772        0.9177497480        3.8332435161
 O        -0.5172629134        1.3404865437        5.2151856530
 C        -2.3642172712        1.6032266882        7.1068049098
 C        -2.2370534564        3.1382567492        7.2013266670
 C        -3.5189943971        3.9654157264        6.7797932510
 C        -4.1759519162        3.5139612093        5.4435173631
 C        -3.7283429831        4.3277363186        4.1551189641
 O        -1.2532199802        3.6503381438        7.7609509947
 O        -5.1121705832        2.7329851408        5.3247961015
 C        -4.6776157624        3.8867829794        7.8266478525
 C        -3.0579835345        5.4284038132        6.6201020113
 C        -4.0406112318        3.4435270608        2.9068200867
 C        -2.8207729317        2.8853886896        2.1641672013
 C        -2.9999168577        1.7996612247        1.0436026773
 C        -2.3057982717        0.4626444590        1.6021314804
 C        -3.1668357079       -0.8932337053        1.6771710679
 C        -4.5266930842        1.5050251024        0.5522475686
 C        -2.2188392878        2.2174836602       -0.1354249131
 O        -1.7084031000        3.2011740758        2.5162180617
 O        -1.1238241590        0.5385320622        1.9165724082
 C        -3.3636839274       -1.4080633520        0.2660601962
 C        -3.3740463246       -2.9276272085        0.1005605685
 C        -4.1153657084       -3.7263427919       -1.0267783877
 C        -4.3705658376       -2.8476115391       -2.3467892372
 C        -3.8139132008       -3.3045810887       -3.6854148152
 O        -2.8106349229       -3.6467851825        0.8956850297
 O        -4.8124110947       -1.7101330040       -2.1472778298
 C        -3.4084812025       -5.0906653101       -1.1656883483
 C        -5.5966430839       -4.1138382629       -0.2319179840
 C        -4.0742650063       -2.3740283004       -4.8296564071
 C        -2.9804623286       -2.6635449083       -5.8912336211
 C        -3.3581297303       -2.4370076423       -7.4172037230
 C        -4.1048557784       -3.8315892583       -7.9081744397
 C        -3.2043280441       -4.7996784109       -8.6965939404
 C        -4.3805948275       -1.3483086841       -7.6344963829
 C        -2.2315958023       -2.0747722105       -8.3239304303
 O        -1.9658812875       -3.2701710215       -5.6033700821
 O        -5.1575607204       -4.1626653407       -7.4972151939
 C        -3.1472308716       -6.2289134398       -8.2437759172
 C        -2.3581889533       -7.2115108063       -9.0803314934
 C        -2.4781506819       -8.7614192155       -8.8494136497
 C        -1.4836440884       -9.5216059672       -7.8671181533
 C        -0.0396297235       -9.8183362253       -8.1782531792
 O        -1.5559923837       -6.8547662847       -9.9424641555
 O        -1.8612700019      -10.0781004377       -6.8293591074
 C        -3.9668189289       -9.2630442682       -8.3480240641
 C        -2.2688564862       -9.2324316535      -10.2482665595
 H        10.0583739867        2.3644061700       -0.0132452801
 H        11.1402414280        3.3204793774        0.9321331853
 H         9.3667982333        3.1118926346        1.3123958382
 H         7.7179408265        4.8378321808        1.7181452972
 H         7.6178552735        6.3832771616        0.8823032926
 H         9.0201129791        5.3893496625       -3.1422261672
 H         8.0028919032        6.3923599709       -2.0623449501
 H         7.3214113402        5.2463298992       -3.0112542414
 H         7.3189291699        2.9879193149       -2.7642747552
 H         9.0840482228        2.7117188300       -2.7765518024
 H         8.1288588470        1.9684344848       -1.5234394622
 H         5.8520829328        6.5671716458        1.9329145975
 H         5.2763994236        5.7966119365        0.5222342290
 H         3.9946505614        2.7078769197        4.1445891509
 H         3.6263822796        4.3026508056        4.7448327629
 H         2.4155572055        3.2754864458        0.3775000775
 H         3.9956728438        3.7173353592       -0.2322926257
 H         2.9325848195        5.0278344852        0.5498653373
 H         5.1538796850        2.2060843182        0.8542777497
 H         5.1339583457        1.9347433331        2.6291334714
 H         3.6811660682        1.5128175375        1.5827372201
 H         1.2465158590        3.2720319111        5.1008860633
 H         2.2820432861        2.8919900489        6.3753124145
 H        -1.0262436875       -0.2617846728        7.6510787194
 H        -0.5752174011        1.1780990791        8.3906115022
 H         2.4185026901       -1.2652558307        5.0486291749
 H         0.6559566597       -1.1926860880        4.8504967060
 H         1.3142702289       -1.6887892389        6.3303181104
 H         3.1123134417        0.6196862771        7.5348349990
 H         1.7592643013        1.5717342160        8.0139961675
 H         1.7085734634       -0.1097181809        8.2442058622
 H        -2.6717196129        1.2614991870        6.1697137271
 H        -3.0491175235        1.3133121981        7.9575776599
 H        -4.4192392844        5.1277942414        4.0415997260
 H        -2.7806078106        4.7346928341        4.2769092546
 H        -5.5074671732        4.4091644859        7.3568692267
 H        -4.3458514782        4.3460884613        8.7501807360
 H        -4.9563228915        2.8722254956        8.0963513071
 H        -2.0289531155        5.3979310811        6.1942112966
 H        -3.7784823158        6.0908834348        6.0630435966
 H        -2.9105049623        5.8055372006        7.6252793535
 H        -4.5557797299        4.0458733306        2.1182409895
 H        -4.8102771337        2.7490920819        3.1563139146
 H        -2.5263529955       -1.6031589998        2.1654839558
 H        -4.0209441007       -0.7615576240        2.2602846278
 H        -4.9161788500        2.2960992560       -0.0845894983
 H        -5.0503175776        1.5580520338        1.4407971065
 H        -4.6218225836        0.6362934030       -0.0154094906
 H        -2.5911278649        1.5992144302       -1.0595258045
 H        -2.2887779216        3.2085835786       -0.4137229240
 H        -1.1840565933        1.9890111342        0.1422093243
 H        -4.4339768229       -1.1713637296       -0.1805118980
 H        -2.8012096614       -0.9177720218       -0.4666899513
 H        -2.7350388621       -3.1505249579       -3.5219229913
 H        -4.0578524581       -4.3030879065       -4.0446993720
 H        -2.7248571775       -5.1159977095       -1.9631384959
 H        -4.1018735001       -5.8269520474       -1.4916781362
 H        -2.9182501871       -5.4903986931       -0.2639623736
 H        -5.3085298548       -4.5377556142        0.7515962429
 H        -6.2296664609       -3.1774643677       -0.3089301994
 H        -6.0531010326       -4.9348738523       -0.9123133875
 H        -4.0249466193       -1.2866377011       -4.5460977232
 H        -5.0395018132       -2.6877955738       -5.2782983393
 H        -3.5383107034       -4.8204515413       -9.7182715669
 H        -2.2023245505       -4.4139621907       -8.6429872353
 H        -4.0488113540       -0.3664555565       -7.3004912024
 H        -5.3158101264       -1.5493672801       -7.1278846748
 H        -4.6692222330       -1.2607374848       -8.6748554582
 H        -1.5275341582       -2.8517820689       -8.3404945925
 H        -2.6615027418       -2.1938152855       -9.3257183350
 H        -1.9194432187       -1.0862780786       -8.2976673672
 H        -2.5880878234       -6.3252724610       -7.2530241965
 H        -4.0775011644       -6.6764375355       -8.1386671344
 H         0.4753557462       -9.0559580097       -8.6360578779
 H         0.5371560877      -10.0445884805       -7.2569603244
 H         0.2049587867      -10.8190046183       -8.7942122442
 H        -4.4103162710      -10.0619719900       -8.9043520080
 H        -4.7423181963       -8.5776650346       -8.3327529154
 H        -3.9384628641       -9.7533688102       -7.3946691806
 H        -1.1539800542       -9.1597970397      -10.5249152437
 H        -2.5886751633      -10.2923516355      -10.3506356410
 H        -2.8276455819       -8.5434497831      -10.9339941391
 Na        0.1607659561        1.9170335207        3.0699237481
