155

 C        10.1175714467        2.8646112455       -0.0956552652
 C         9.7432959475        4.2039991230       -0.7804660447
 C         8.2164518766        4.2782775870       -1.4947239982
 C         7.0122015973        4.3170946843       -0.5236503483
 C         7.3105899571        5.0571718848        0.8538924781
 C         8.0640173976        5.6574488645       -2.1801101251
 C         8.0448383915        3.0520574444       -2.3618739998
 O        10.4725127546        5.1310487238       -0.9729297973
 O         6.0034605078        3.6996440599       -0.6979490644
 C         5.8643770872        5.8267490307        1.4420967798
 C         5.2286438043        4.6728085967        2.2906679217
 C         3.9868247406        3.8020190405        1.8315849936
 C         2.8490434216        3.7366562896        2.9020416812
 C         3.2567502874        3.6318168358        4.3901692170
 O         5.7362879118        4.3379408630        3.3473490091
 O         1.6715636676        3.6920497624        2.6545703862
 C         3.2857614198        4.4683674526        0.6440199981
 C         4.4694698085        2.2074702383        1.4662182683
 C         2.2275576411        2.9589318933        5.2801000611
 C         2.0186709481        1.3864299080        4.9343688253
 C         1.3937636100        0.4494956949        5.9862592142
 C        -0.1132506258        0.8695843855        6.0471846090
 C        -0.7995970508        1.0265785255        7.4191366610
 C         1.2692399365       -1.0918083586        5.5206281639
 C         2.2973834680        0.4026222586        7.2255234563
 O         2.2971484244        1.1148825783        3.7920645817
 O        -0.7363047711        1.1581164163        5.0219408367
 C        -2.2412154291        1.5552871749        7.5274113748
 C        -2.1281079374        3.2052401655        7.2410221693
 C        -3.4390691623        4.1011965151        6.8683649354
 C        -4.2277895016        3.7147573422        5.5329748249
 C        -3.6986147133        4.4578884847        4.2667309089
 O        -1.1871863188        3.7617070903        7.6703272599
 O        -5.1344785526        2.9205721483        5.4884241215
 C        -4.3083378974        3.8413914563        8.2064178932
 C        -2.9446416864        5.6110017456        6.8828198366
 C        -4.0135790676        3.8629326126        2.9388944324
 C        -2.9331691467        2.8474648405        2.5390290488
 C        -3.2008370301        1.6877200579        1.4399681666
 C        -2.4594300646        0.2442331888        1.8489052925
 C        -3.1865708127       -1.0975569282        1.6745317526
 C        -4.6699600914        1.6365585625        1.0847165669
 C        -2.3557651304        2.1310350763        0.2504252270
 O        -1.8346021875        3.1189069848        2.9288471213
 O        -1.2791474023        0.1588954187        2.0657530683
 C        -3.1363133288       -1.5630402100        0.2009531861
 C        -3.1446824311       -3.1040252738        0.1506075141
 C        -4.1738900070       -3.5495030321       -1.0469641241
 C        -4.1726172456       -2.6794640569       -2.2964235823
 C        -3.8242920935       -3.3770191733       -3.6233779297
 O        -2.5844524424       -3.8761354348        0.9184985040
 O        -4.5361538179       -1.5312711338       -2.2252303246
 C        -3.7404778004       -5.0349807041       -1.4929958280
 C        -5.7142828016       -3.4835223183       -0.6138883757
 C        -4.1598475862       -2.5184515354       -4.8711158053
 C        -3.1405814553       -2.8205783108       -6.0029343464
 C        -3.4749296729       -2.5837488842       -7.4553256971
 C        -4.1114547433       -3.9562081733       -7.9474587145
 C        -3.2503708522       -5.0717097528       -8.6211960325
 C        -4.5557540576       -1.5353948399       -7.6531762422
 C        -2.0801747627       -2.2333872780       -8.1474774797
 O        -1.9968852026       -3.1165936039       -5.7155052516
 O        -5.2744296443       -4.2053085865       -7.6527484774
 C        -3.3964459335       -6.5452040785       -7.9082014278
 C        -2.3873623401       -7.4217800986       -8.9646199422
 C        -2.5167009346       -8.9993644428       -9.0045903878
 C        -1.5530397641       -9.4914627542       -7.9289625252
 C        -0.1031521282       -9.6397582291       -8.4899092555
 O        -1.7344166779       -6.7763434202       -9.7054924942
 O        -1.8023924319       -9.4500006040       -6.7676265550
 C        -3.9363930544       -9.2834043534       -8.6798906018
 C        -2.2352418870       -9.6561154774      -10.4567823147
 H        10.5404407367        2.0353645903       -0.7884462504
 H        10.8114541940        3.0096894920        0.7013984604
 H         9.3670247079        2.3784480069        0.3771711212
 H         7.6080963547        4.4461208170        1.7199582047
 H         8.0373019765        5.8709122923        0.7688719246
 H         9.0587621214        6.1577341331       -2.3025417633
 H         7.1803652545        6.2361795232       -1.8144507326
 H         7.7756342066        5.4212764493       -3.2587350462
 H         7.1141328358        3.2338458038       -2.9647022108
 H         8.8830159087        2.7357676345       -2.9190031053
 H         7.7970976631        2.2010780251       -1.8013894370
 H         6.0133804184        6.8184826386        1.9971954737
 H         5.2360259015        6.1418935769        0.6666931229
 H         4.2153331592        3.2541688472        4.6385260930
 H         3.3728338203        4.6497000975        4.8099372792
 H         2.4603649085        3.8311167291        0.3863886654
 H         4.0060291242        4.5776922520       -0.1952891699
 H         2.9121273907        5.3533796349        1.1255854680
 H         4.2453927313        2.1114006073        0.3384510108
 H         5.5277541187        2.0162592520        1.6226845086
 H         3.7881063486        1.5383493899        2.0509050678
 H         1.2546711260        3.5256638539        5.1117621700
 H         2.4273800035        3.2711107087        6.2970752090
 H        -0.6418649582        0.1429124478        7.9880755490
 H        -0.1336482022        1.7657446547        8.0220978882
 H         2.3546981548       -1.3225097754        5.8160038368
 H         1.0645470140       -1.1599389907        4.4213457967
 H         0.6331887817       -1.7689095221        6.1350030349
 H         3.3010100999        0.2051704131        6.8252761193
 H         2.3866601112        1.2293525983        7.8505677801
 H         2.1969454692       -0.5106016859        7.8817642040
 H        -2.7676961156        1.0300730097        6.6423938687
 H        -2.6753229637        1.2649755637        8.4519931001
 H        -4.1819667918        5.4952236730        4.2150415075
 H        -2.5876286913        4.6371082489        4.4221608493
 H        -5.0262481970        4.6295409715        8.2918902941
 H        -3.6356412928        3.5610192785        9.0450928400
 H        -4.8691025806        2.8893106436        8.1386285772
 H        -2.3293433522        5.7634044279        6.0011881452
 H        -3.7845100382        6.2787121477        6.8114573366
 H        -2.4320205741        5.8534915833        7.8256935568
 H        -4.1008327954        4.6247566114        2.1871297917
 H        -5.0099586317        3.3505088525        2.9481086809
 H        -2.8305108287       -1.7819247682        2.4860745576
 H        -4.2929922077       -0.9550464163        1.8707250349
 H        -4.8482882745        1.9838123465        0.0847038219
 H        -5.3974127555        2.1017093660        1.8761474449
 H        -4.8464862167        0.5326769449        0.7944729646
 H        -2.5471420756        1.5837544874       -0.6211831681
 H        -2.6282049757        3.2348169130        0.0246194523
 H        -1.3049841536        2.0881059617        0.6089209780
 H        -3.6394099821       -0.9748198185       -0.4388011534
 H        -2.0398116657       -1.3340200085       -0.1948743346
 H        -2.7339328073       -3.6916983511       -3.6213516638
 H        -4.5628125969       -4.1996851078       -3.7443193410
 H        -2.7806638086       -5.2960771302       -1.9638167166
 H        -4.5553836784       -5.3584574060       -2.2381521035
 H        -3.8243459350       -5.7189302534       -0.7099826045
 H        -5.8113339833       -3.3756342824        0.4591467984
 H        -6.1281638098       -2.7144964127       -1.2165793150
 H        -6.0353343247       -4.4163952924       -0.9247394661
 H        -4.0548301394       -1.4412827310       -4.6775309051
 H        -5.1853154674       -2.7982366336       -5.1010434975
 H        -3.6767758005       -5.1557503187       -9.6724975010
 H        -2.1418454262       -4.8577914214       -8.5533931034
 H        -4.2936675742       -0.5010954307       -7.9126656253
 H        -5.3539174697       -1.4499381815       -6.9114944165
 H        -5.1274813933       -1.9050993181       -8.5095990325
 H        -1.4478908666       -3.1824886429       -8.1233278491
 H        -2.1399834543       -1.8353249813       -9.1943989058
 H        -1.6563868443       -1.3129720819       -7.6169612279
 H        -2.8711726548       -6.5447127105       -6.9733239036
 H        -4.4896769496       -6.9825720107       -7.8418160875
 H         0.2463026664       -8.7988879579       -9.2015506020
 H         0.6821055366       -9.8308847193       -7.7857695198
 H        -0.0972319439      -10.4460352043       -9.1484239956
 H        -4.2603337431      -10.2737972029       -8.4070188770
 H        -4.6150966192       -9.1496381646       -9.5922924745
 H        -4.3632291345       -8.7955449699       -7.8307460119
 H        -1.2163988569       -9.5872109058      -10.6791035635
 H        -2.5516841763      -10.7100099094      -10.5851852663
 H        -2.7821117969       -8.9974809864      -11.1263095856
 Na        0.2233591988        2.0691880032        2.7428592222
