155

 C         5.9292087868       -4.5089366688        7.8132933277
 C         4.8087249003       -5.1559040245        7.1122265935
 C         3.4544822431       -5.6660660696        7.8230355154
 C         2.5449653779       -4.4638167663        7.5854914371
 C         1.9561429466       -4.2193952728        6.1158147465
 C         2.9877669801       -6.9345927321        7.0772047951
 C         3.6477498540       -6.0035102864        9.3997361139
 O         4.9911232047       -5.5061005037        5.9748077963
 O         2.3179748266       -3.6466951836        8.4497890720
 C         1.7386892874       -2.7282485890        5.8486004287
 C         3.0953496094       -1.9514586645        5.5563867096
 C         3.0936016084       -0.3398111417        5.4052341987
 C         1.6802985499        0.0374030276        5.0277837144
 C         1.3166694430        0.0270328995        3.5658051867
 O         4.1167877990       -2.5339965611        5.4369769863
 O         0.9045849243        0.4520500653        5.8785873274
 C         3.4632949432        0.3027208174        6.7970190273
 C         4.2305833645       -0.0392290084        4.3094480672
 C        -0.2704817351        0.2054539699        3.4119015301
 C        -0.5758932106        0.6225467950        1.9459822421
 C        -0.5411444922        2.2350777384        1.6235412471
 C         0.4683580368        2.4204730601        0.5087021398
 C         1.6043044190        3.5173513293        0.6300358579
 C        -1.8093260720        2.7006359991        0.9003081345
 C        -0.3861555424        2.9595005627        2.8667234619
 O        -0.6869616101       -0.2557287969        1.1317982552
 O         0.4610215663        1.7589119076       -0.4847924549
 C         2.9117354280        3.0448629798       -0.0890438682
 C         3.7667453786        2.2523063852        0.9096454793
 C         5.1622778784        1.8358660799        0.3965096299
 C         4.9719182388        0.6764488423       -0.5741841818
 C         4.6847570568       -0.7896498847       -0.0718402414
 O         3.3715475353        1.9336913541        2.0319873343
 O         4.7898428597        0.9600970922       -1.7564121994
 C         5.9535928229        2.9400319157       -0.3437089329
 C         5.9419295879        1.3959656139        1.6409566873
 C         4.1230825643       -1.7662782287       -1.1904308952
 C         2.6077731910       -1.8871218800       -1.3125053764
 C         2.0648696630       -3.2876349124       -2.0445173009
 C         0.8074375055       -2.9021521316       -2.8961479248
 C         1.1101163250       -2.5963195672       -4.3510950688
 C         3.1331206116       -4.1054208693       -2.9042819680
 C         1.4872459645       -4.2545247226       -0.9017665119
 O         1.7415156952       -1.0985891695       -0.9517290410
 O        -0.2962475080       -2.8085118496       -2.3818942641
 C        -0.0959144603       -1.8293579278       -4.8376643951
 C        -0.2439710442       -0.4587201606       -4.1842647754
 C        -1.2917143442        0.6126454546       -4.6398893248
 C        -2.5393538258        0.3051753459       -3.7303215825
 C        -3.9037285402       -0.0143040971       -4.1569348283
 O         0.5139405342       -0.0655397585       -3.2866584157
 O        -2.2969065185        0.0675556814       -2.5541891957
 C        -0.8848463160        2.0932301839       -4.3172291901
 C        -1.6087154864        0.4560386173       -6.2145300040
 C        -4.9633740151       -0.3708177259       -3.0852427765
 C        -6.2294594612       -0.8322421030       -3.7417889246
 C        -7.5510594875       -0.1673104722       -3.1207636276
 C        -7.3505420420        1.4000565247       -3.3878018690
 C        -7.7636543030        1.9302747020       -4.8085417650
 C        -8.8713407217       -0.6271875868       -3.7775947274
 C        -7.5763408541       -0.5753892873       -1.5972425649
 O        -6.3012410589       -1.7011521930       -4.5839652924
 O        -6.8942769771        2.0378284115       -2.4429539533
 C        -7.6311695575        3.4654763689       -4.8818639272
 C        -6.1628476004        3.8628351457       -5.0988572365
 C        -5.7613780734        5.2619131772       -5.1782367524
 C        -6.7760926690        6.0404285911       -6.0574162512
 C        -6.2880962001        6.3994439339       -7.4154820755
 O        -5.3545549167        2.9569779188       -5.4445412417
 O        -7.9011085738        6.3351899813       -5.7640498066
 C        -5.8418523267        5.8684196777       -3.7275180096
 C        -4.2203229575        5.3203725675       -5.4988318278
 H         5.6474808198       -3.4642202759        8.1895674723
 H         6.1153709707       -4.9716677953        8.7586455014
 H         6.6940759005       -4.4110964266        7.0486302125
 H         2.5865208864       -4.6422112319        5.2593307391
 H         0.9806111756       -4.8123603749        6.0957169731
 H         3.1128797345       -6.7971637878        6.0177978681
 H         1.9191890270       -7.2644254120        7.3995460566
 H         3.7133477307       -7.6888285386        7.3729470987
 H         4.1433227239       -5.1063112363        9.8886938717
 H         2.6756468091       -6.3130094168        9.7578582732
 H         4.4099137100       -6.8079110116        9.5623495096
 H         1.0157865734       -2.6806594402        5.0006784077
 H         1.3132776723       -2.2355320719        6.7125362513
 H         1.9444423865        0.7309516859        3.0088636330
 H         1.5411051782       -0.9099297639        3.0222832086
 H         3.6502350953        1.3477321049        6.6281891813
 H         4.2536573990       -0.0543562783        7.4004983879
 H         2.5836241392        0.3623983646        7.4885687575
 H         5.1266185294       -0.5580846945        4.5330539577
 H         3.9005617660       -0.4051713624        3.3171222607
 H         4.4492837912        1.0305410556        4.1811113179
 H        -0.7205240123        0.9312276638        4.1363749310
 H        -0.7050630602       -0.7970607033        3.5961563047
 H         1.2716654315        4.4050325800        0.1197278855
 H         1.8531482129        3.8491195777        1.6611456601
 H        -1.7737008446        2.5164993238       -0.1999505045
 H        -1.7930897887        3.7811709588        1.1347689657
 H        -2.6880481456        2.1215655469        1.2945520821
 H        -1.3427793701        2.9430630629        3.4395408020
 H         0.4441567329        2.5370438835        3.4276401993
 H        -0.2817560192        4.0369909717        2.6784588211
 H         2.9031498333        2.4757577784       -1.0133328051
 H         3.5683101041        3.8686937967       -0.3271321390
 H         5.6176396817       -1.2547361299        0.3307368250
 H         3.8908872275       -0.8325796049        0.7118424122
 H         6.3406420666        2.5130578103       -1.2516755115
 H         6.7789660357        3.2657622925        0.3221728188
 H         5.3068880467        3.7706194328       -0.4931382135
 H         5.8760123732        2.0913525360        2.4156941284
 H         5.4477629195        0.4925125281        1.9784430345
 H         6.9992884324        1.1173139256        1.4911235271
 H         4.4724306767       -2.8574302726       -1.0491204359
 H         4.4757047478       -1.4762759310       -2.1570388149
 H         1.9567414338       -1.9461339703       -4.3469884485
 H         1.2746209646       -3.4632165113       -4.9949799032
 H         3.6700995139       -3.4327834451       -3.4837085265
 H         2.5456366615       -4.7188880840       -3.6257302474
 H         3.7792903652       -4.7588320041       -2.3136318654
 H         0.9281794691       -5.0153572602       -1.4212904092
 H         2.3228519850       -4.8171778107       -0.4720827525
 H         0.7458956205       -3.7288375756       -0.2927927075
 H         0.0681198538       -1.6995511430       -5.9423301290
 H        -0.9875982176       -2.4697616607       -4.7018262450
 H        -4.3028986385        0.5894462769       -5.0090908570
 H        -3.8196640267       -1.0580273917       -4.6186939958
 H        -0.7138122777        2.6521420465       -5.2384080759
 H         0.0324890215        2.2642549779       -3.6441117390
 H        -1.7849263767        2.5686283723       -3.8845406171
 H        -2.5781112748        0.9617094599       -6.4369066625
 H        -0.8072754854        1.0651833107       -6.7456567741
 H        -1.6232538807       -0.5250550960       -6.5161335226
 H        -4.9901600178        0.4724091035       -2.3861581449
 H        -4.4475228008       -1.2070693818       -2.5224555589
 H        -7.0293850485        1.5580242276       -5.5465801279
 H        -8.7683906892        1.5142060702       -5.1546508725
 H        -8.8787923567       -1.6778170084       -3.9907869347
 H        -9.1329703478       -0.2015423643       -4.7663278527
 H        -9.6270633649       -0.3914333231       -3.0178838004
 H        -6.6965851063       -0.0074600917       -1.1254448251
 H        -8.5350581199       -0.1360505466       -1.1694040873
 H        -7.4888731386       -1.6803533263       -1.5245731101
 H        -8.2858523144        3.8233254901       -5.6418196417
 H        -7.9403259197        3.8746418653       -3.9088602544
 H        -6.9804833142        7.1407202013       -7.8145188779
 H        -5.2905625177        6.8398011563       -7.4665905348
 H        -6.3356492351        5.6017904286       -8.1570258806
 H        -5.0897117718        5.6567507392       -3.0381686494
 H        -6.8435755198        5.5341781519       -3.3008128795
 H        -5.7325303159        6.9622648692       -3.7449941810
 H        -3.8347919807        6.2949915373       -5.2427112827
 H        -3.6559698143        4.7986999555       -4.7302220879
 H        -3.9259644506        5.0013118094       -6.5049172800
 Na       -0.5574827995       -0.3903327390       -1.0615533771
