155

 C         8.5791303154        2.5327906296       -3.9400480044
 C         8.8707052399        3.3093412835       -2.5914660445
 C         8.0768756421        4.6930361376       -2.3612579226
 C         6.8342807594        4.6678455637       -1.2718721630
 C         7.2219190496        3.7099255114       -0.0760608326
 C         9.2595924530        5.6868334840       -2.1065975371
 C         7.3077333648        5.0704983870       -3.6027381365
 O         9.6563584991        2.8727188950       -1.7942120605
 O         5.9091069448        5.4162061772       -1.1961617622
 C         6.1532697732        3.6755561379        1.1216228774
 C         4.6894996428        3.1149782144        0.6430152014
 C         3.2631159897        3.8765190433        0.9335268504
 C         2.5526921239        3.0866411135        2.1296590697
 C         3.4227000593        2.0955377247        3.0067764055
 O         4.5780172189        1.9233605685        0.5038107045
 O         1.4360331563        3.3266041939        2.4091503261
 C         3.4755327542        5.3827214373        1.2149984697
 C         2.3908322919        3.5991928404       -0.3193438407
 C         3.0987809582        2.0878500319        4.4688666435
 C         2.3656633239        0.7781542834        4.9019423091
 C         1.9669054565        0.4467537248        6.3707252166
 C         0.9227355345        1.5318874558        6.9576904761
 C         0.9906448640        1.8710467834        8.3765409598
 C         1.1389260599       -0.9695603948        6.3173851098
 C         3.1742799441        0.2722068357        7.3654726554
 O         1.9788799307       -0.0724366835        4.0919407594
 O         0.0647522945        2.0399620929        6.2102615010
 C        -0.2539392859        2.5978457190        9.1202859674
 C        -0.3018294669        4.0391245778        8.5728100515
 C        -1.7461245272        4.7440375131        8.5718296272
 C        -2.6624335604        3.8495006573        7.5802387215
 C        -3.0286126632        4.1278566773        5.9297612016
 O         0.6669506505        4.6807176630        8.2855299153
 O        -3.2347305360        2.8637773831        8.0268089645
 C        -2.2770146035        4.6679520330       10.0221711971
 C        -1.5376608177        6.2612376174        8.2257303761
 C        -3.3204387365        2.7179016995        5.3264350985
 C        -2.7447701968        2.5165250834        3.8637249963
 C        -3.4768540783        1.6555512323        2.7800313010
 C        -2.5957934264        0.3680258869        2.0976964574
 C        -3.3330067461       -0.7366604716        1.3855679152
 C        -4.8666366522        1.2408385113        3.3926783593
 C        -3.6342429403        2.5433593156        1.5007185672
 O        -1.7377752661        3.1293093528        3.5533610209
 O        -1.4499129509        0.3369479039        2.4445028740
 C        -3.7031075842       -0.4179728063       -0.0403403415
 C        -4.2670363951       -1.7261884097       -0.5669111382
 C        -4.8714351999       -1.7759655676       -1.9531173617
 C        -3.6312347671       -1.5961409466       -2.9072493349
 C        -2.9574945248       -2.7024831426       -3.7356425840
 O        -4.2760885594       -2.6162534116        0.2494823563
 O        -3.0633945488       -0.5041187552       -2.9737749202
 C        -5.5475158888       -3.1974389269       -2.0175624515
 C        -5.9695805779       -0.7157135703       -2.2364748540
 C        -3.8918917092       -3.5838815456       -4.6066319799
 C        -3.3091445295       -4.0011282022       -6.0314600261
 C        -4.1280124043       -3.5286354404       -7.3102682303
 C        -4.4431599506       -4.9634991385       -7.9839560936
 C        -3.4863496652       -5.5414747037       -9.0627875072
 C        -5.5455660739       -2.8784033256       -6.9597286163
 C        -3.1838100271       -2.4599902131       -7.9580501353
 O        -2.2187036588       -4.5166063566       -6.0859475622
 O        -5.5786758996       -5.4161026822       -7.6790437163
 C        -4.0775547735       -6.7557264788       -9.7149360172
 C        -3.1652347632       -8.0753125821      -10.0896450866
 C        -3.0160499116       -9.1636810602       -8.9630676902
 C        -1.6250638091       -8.9098824514       -8.2633525734
 C        -0.5663334521       -8.1267700406       -9.1088589230
 O        -2.8827474888       -8.3616707875      -11.2482340280
 O        -1.3336594870       -9.1887663237       -7.1690419642
 C        -4.1487035215       -9.1072286877       -7.8494396133
 C        -3.0294172867      -10.6435899479       -9.5538267802
 H         8.6108401797        3.3423024061       -4.6433206317
 H         9.5635305746        1.9664091293       -3.9966944003
 H         7.6785868783        1.9989736447       -3.9972466315
 H         7.1541995170        2.7131665202       -0.5649219138
 H         8.3025563498        3.9008770041        0.1697757003
 H         9.5189378383        5.7786720701       -1.0878144864
 H         9.0435529572        6.7336857596       -2.3856850903
 H        10.1653075063        5.4300087390       -2.5478120108
 H         6.9847310066        6.0366522008       -3.5740324733
 H         8.0878380440        5.0903472183       -4.3938861404
 H         6.3786475110        4.5644895723       -3.9313951514
 H         6.5657535302        2.9609886018        1.7905058025
 H         5.9593160729        4.6573296475        1.6446364259
 H         3.0066981885        1.1517765547        2.5217951466
 H         4.4349597427        2.1181024674        2.8231511311
 H         2.4770442000        5.8473675773        1.1122464090
 H         3.9653108990        5.8100715094        0.3611790384
 H         3.8835019921        5.6641048878        2.2452205560
 H         1.2881997114        3.9149691031       -0.1224399088
 H         2.7100565219        4.2097919602       -1.2240434957
 H         2.4775656156        2.4993972448       -0.4227972105
 H         2.3446434404        2.9301924352        4.6348721450
 H         3.9763581524        2.2374503066        5.1181563293
 H         1.4215302806        1.1110216696        9.0330241177
 H         1.6270353396        2.7722629372        8.4012285730
 H         1.8186869570       -1.8665368152        5.9397920928
 H         0.1501222935       -0.8678072044        5.7673337278
 H         0.9166057719       -1.3435441231        7.3819526871
 H         3.8262413317       -0.5508215922        6.8918367624
 H         3.8166031538        1.1642254856        7.3162544640
 H         2.8261507750        0.0214411190        8.3072924749
 H        -1.2964444785        2.2920411414        8.9486620744
 H         0.0351932318        2.5871218666       10.1993302170
 H        -3.9478340962        4.6545754562        5.9134373186
 H        -2.2468817181        4.7128759147        5.4680866329
 H        -2.4190580659        3.5696781374       10.2284030979
 H        -3.0657290960        5.3601136748       10.1295776731
 H        -1.4249539282        4.7968907339       10.7208807070
 H        -1.6690513907        6.6454929624        7.2505179796
 H        -2.3540518665        6.8298154956        8.7209224411
 H        -0.6004101464        6.5727236902        8.6413125768
 H        -4.3703527096        2.4716016644        5.5071608049
 H        -2.8732637530        1.8716800896        5.9686964640
 H        -2.5536773609       -1.5995843244        1.4870029271
 H        -4.1663148043       -0.9233273531        2.1297644871
 H        -4.8002751000        0.6418845739        4.1894749332
 H        -5.6422917799        0.9588341358        2.6296299934
 H        -5.4212483436        2.1131029479        3.7092430846
 H        -4.1240511497        2.1207966754        0.7314641366
 H        -4.0734065813        3.5464273596        1.7918727618
 H        -2.6883649564        2.7749532585        1.0718579991
 H        -4.4849823292        0.3499019232       -0.2124248195
 H        -2.8160534401       -0.1496058148       -0.6350308559
 H        -2.3089622578       -2.3918409628       -4.5003390576
 H        -2.5369919024       -3.3143213459       -2.9258803290
 H        -4.8368169576       -4.0839737763       -1.9233045442
 H        -5.8245663662       -3.2263885290       -3.1387418481
 H        -6.3521242525       -3.2211170205       -1.3110021641
 H        -6.3872487875       -0.1179802514       -1.4540983349
 H        -5.6519123020        0.0500736907       -2.9558939882
 H        -6.8218477775       -1.1180118731       -2.7391920828
 H        -4.8720665299       -3.1390275128       -4.7040791655
 H        -4.0627678895       -4.5631990219       -4.1481664777
 H        -3.1913940689       -4.8194383645       -9.8012480473
 H        -2.4885910509       -5.7458861980       -8.6811793405
 H        -5.5097244805       -1.8558147315       -6.5660522454
 H        -6.1350484088       -3.4650264139       -6.2484360595
 H        -6.0882297596       -2.7883994368       -7.8884342993
 H        -2.1507984865       -2.7123732092       -7.8889538595
 H        -3.5731244607       -2.3926312897       -8.9874228509
 H        -3.2194617119       -1.4637969722       -7.5258541755
 H        -5.0255997258       -7.0277165007       -9.2205292613
 H        -4.3419901232       -6.4396091258      -10.6508302519
 H        -0.2664587406       -8.7367721716       -9.9913806678
 H        -0.6918697173       -7.1235176943       -9.3477334412
 H         0.3283365730       -8.0493880021       -8.2994367301
 H        -5.1365259792       -9.1100691783       -8.3073422755
 H        -4.0913021673       -8.2805448835       -7.1722529862
 H        -4.1435256270      -10.1286582719       -7.4825482194
 H        -2.0847645788      -10.7660946221      -10.1676828937
 H        -3.0219636413      -11.3853468443       -8.6825456488
 H        -3.9714938022      -10.7575634381      -10.2065563553
 Na        0.0213758783        1.9294628788        3.8153697641
