155

 C         7.4723132598        2.8175669708       -4.8338684753
 C         8.4910979049        3.3852299951       -3.7575606623
 C         8.0399592904        4.7913959205       -2.9411459401
 C         7.2968320668        4.3139970114       -1.5417298755
 C         5.9899974646        3.5116228492       -1.6753429454
 C         9.1923786561        5.5068815256       -2.4121844983
 C         7.0476441128        5.6624225760       -3.6886697085
 O         9.5967117163        2.9886879562       -3.6399563905
 O         7.8506732884        4.5062547235       -0.4882921256
 C         5.2400785266        3.5483236659       -0.3075641851
 C         3.9132194195        2.8681927504       -0.1872918563
 C         3.0495399822        3.2782236986        1.2651265831
 C         2.7216013425        1.9763391423        2.0413843879
 C         3.8852256992        1.0407652381        2.4424851569
 O         3.4493420896        2.2489065173       -1.0916465155
 O         1.5674496097        1.7329428231        2.3182615079
 C         3.6546540123        4.3018841918        2.2824928858
 C         1.5502759631        3.8381496114        0.7909821459
 C         4.0209158822        1.0697487564        4.0650069036
 C         2.8288671121        0.5310761784        4.7671683020
 C         2.8417518051        0.5229907981        6.3774440590
 C         1.7527031618        1.4873683425        6.9630234183
 C         1.9652330462        2.2502798140        8.2687107629
 C         2.3428472702       -0.7786296795        6.8948572075
 C         4.2107909185        0.8354311842        7.0167159054
 O         1.7683641297        0.1000461872        4.2790220099
 O         0.7391297319        1.6704199826        6.3386765515
 C         0.6284827135        2.7203778016        8.9252032896
 C         0.2441423090        4.0879674143        8.4540204008
 C        -1.2376800880        4.5117876103        8.8824960163
 C        -2.3160236173        3.7325412168        8.0647880579
 C        -1.8216920907        3.6028869542        6.4967384167
 O         0.9889406416        4.8664349533        7.8722774502
 O        -3.3009969365        3.2817425149        8.5881215570
 C        -1.3937197512        4.2983985521       10.3876194055
 C        -1.5423341473        6.0203505414        8.3950290575
 C        -2.9134473973        2.8339004823        5.7030295739
 C        -2.6851329451        2.8696550464        4.1088487609
 C        -3.6734646167        2.0478383672        3.1171422609
 C        -2.9161210950        0.7986149435        2.6551046710
 C        -3.6291001522       -0.2312157660        1.8566074737
 C        -4.9525757680        1.5090402768        3.8546322277
 C        -4.1909657850        2.8628536853        1.8677826742
 O        -1.8335175589        3.6756517840        3.7521247414
 O        -1.7329500833        0.6690062679        2.7898544256
 C        -3.6752572487       -0.0359135639        0.3012817033
 C        -4.6021072090       -1.2500262863       -0.3386550442
 C        -5.2028943109       -1.0914564984       -1.8260387459
 C        -3.9946842324       -1.7116846660       -2.6385385374
 C        -4.2313409544       -2.8634345861       -3.5893481119
 O        -4.8021124376       -2.2682445282        0.2731540230
 O        -2.8848134685       -1.2801794937       -2.4040583915
 C        -6.5410857056       -1.9626828765       -1.9220391134
 C        -5.5279785946        0.3278015999       -2.2446533008
 C        -4.6643787609       -2.4784711517       -5.0636021936
 C        -3.8864957292       -3.2577479805       -6.1175672407
 C        -4.2867395918       -3.2395723181       -7.6578520637
 C        -4.8228464956       -4.8182354367       -7.8180189090
 C        -3.7772118123       -5.9205054439       -8.2589244427
 C        -5.5390184450       -2.4023435439       -8.0663865330
 C        -3.0966270401       -2.8986850906       -8.5023314871
 O        -2.7510397634       -3.4962745231       -5.8706932824
 O        -5.9365816810       -5.1553858778       -7.3367232101
 C        -4.6222715705       -7.2696171876       -8.4106294132
 C        -3.6261859135       -8.1327866404       -9.3594981063
 C        -2.9467157055       -9.4650553605       -8.7854309571
 C        -1.4583728727       -9.0427802946       -8.4386153399
 C        -0.2768076114       -9.3311953961       -9.4906880473
 O        -3.3811145407       -7.8638826247      -10.5769766986
 O        -1.2092864403       -8.7733518647       -7.3261899465
 C        -3.4076762776       -9.9929316128       -7.4158708579
 C        -3.0758933378      -10.4806487657       -9.9951867340
 H         7.1946993724        3.5304603910       -5.4813490148
 H         8.0280622182        2.0568078732       -5.2310668663
 H         6.6965275684        2.3120671716       -4.2173519711
 H         5.4891704326        3.7591877697       -2.6214218165
 H         6.2954122034        2.4308050960       -1.6872177144
 H         9.6396901369        5.1186615249       -1.5131034116
 H         8.8075040109        6.4994981325       -2.1314475824
 H         9.9425525469        5.6656962926       -3.1377782684
 H         6.7502325864        6.4004121406       -3.0201965973
 H         7.3932005173        6.0820052426       -4.6663637861
 H         6.1443042039        5.1490935090       -4.0096928345
 H         6.0036277090        3.1359059958        0.3995121071
 H         5.1743190326        4.4940393755        0.0771157396
 H         3.8203017708        0.0584553215        1.9508470766
 H         4.8564994921        1.4611178280        2.0938775880
 H         3.2938236150        4.2900304606        3.3765189111
 H         3.3228036378        5.2591001374        1.9377720789
 H         4.7220810874        4.4599758435        2.3286387983
 H         0.8622688685        4.1710704286        1.6703265285
 H         1.7968980877        4.7171118009        0.0812921977
 H         0.8539935215        3.1813659197        0.2360879406
 H         4.3228678335        2.0343255712        4.5042848572
 H         4.8483076462        0.3694472850        4.4505087873
 H         2.4298563260        1.6889848225        9.0381919080
 H         2.7267121988        3.0560188321        8.0889489193
 H         3.2425818855       -1.5461273106        7.0471784109
 H         1.9178926920       -1.4679962178        6.1380800467
 H         1.7097429496       -0.7614581694        7.8222953199
 H         4.8718642885       -0.0423458838        6.7878785582
 H         4.4052744070        1.8770566368        6.6615157602
 H         4.1498465449        0.7930775610        8.0471904048
 H        -0.0811166046        1.8402017480        8.8145143265
 H         0.7234057479        2.6656508578        9.9642246866
 H        -1.5057676267        4.6504604525        6.1287135583
 H        -0.8875322358        3.1000441947        6.5218060239
 H        -0.5347480648        4.9212680277       10.7560940210
 H        -1.3942888323        3.3000226661       10.6670052240
 H        -2.4455394315        4.6235189930       10.6625668872
 H        -1.9958366680        5.8614852220        7.3885961279
 H        -2.3055527995        6.4255114701        9.0802137748
 H        -0.7616227252        6.7397984193        8.2037061933
 H        -3.9031181558        3.3460573251        5.9081407703
 H        -2.8896010232        1.8388143760        6.2202060185
 H        -3.0674371612       -1.0858508953        2.2367100801
 H        -4.5704984566       -0.2741196022        2.1707558439
 H        -4.6469065349        0.6522684866        4.4178214998
 H        -5.5072250234        1.0452175850        3.1462927387
 H        -5.4261565559        2.1960389769        4.3967495952
 H        -4.9597917540        2.4940694113        1.2934759415
 H        -4.4451466596        3.9342132201        2.0806904128
 H        -3.3481249279        3.0165659723        1.2101814846
 H        -4.0815380899        0.8519119773       -0.1759896699
 H        -2.7809107965       -0.3247569714       -0.0604855931
 H        -3.3778141880       -3.4722071930       -3.5539891476
 H        -4.9038256054       -3.4922020561       -3.1134205027
 H        -6.5956844609       -2.7138479493       -1.0932675527
 H        -6.8146018937       -2.2431522666       -3.0257540998
 H        -7.2889549009       -1.2693861506       -1.5670740300
 H        -4.6899458653        0.9863452078       -2.2281915119
 H        -5.7772496375        0.3240884533       -3.3363256741
 H        -6.4206707644        0.7298299696       -1.8001632267
 H        -4.1683328443       -1.5388344888       -5.3190207739
 H        -5.7395154024       -2.3210228841       -5.1706083592
 H        -3.3231482481       -5.7022195152       -9.1337219588
 H        -3.1138284742       -6.0682433559       -7.4153494795
 H        -5.0869564793       -1.4058701492       -8.0226044705
 H        -6.4195201120       -2.5139165260       -7.4419095165
 H        -5.8760807011       -2.6016470737       -9.0785106970
 H        -2.2928730967       -3.4351467356       -8.1448495777
 H        -3.2002526635       -3.0475598068       -9.5762256578
 H        -2.9523556147       -1.8872513397       -8.2975595385
 H        -4.8059398535       -7.8006993150       -7.4770198311
 H        -5.5783273127       -7.1700332911       -8.8803288425
 H        -0.4941511080       -9.5693035467      -10.5680734588
 H         0.3401468968       -8.4715173261       -9.4889451287
 H         0.2111462065      -10.2732152155       -8.9877145116
 H        -3.4132121495       -9.1110942771       -6.7535307698
 H        -2.7334831996      -10.7431972102       -7.0182117490
 H        -4.3235475976      -10.4786168294       -7.7321365632
 H        -2.9739933017       -9.9878361310      -11.0092620545
 H        -2.3101623232      -11.2926067133       -9.9839144989
 H        -4.0320751458      -11.0364400639       -9.8642290046
 Na       -0.0771920017        1.3804882489        3.9069769383
