155

 C         7.1049007786        3.3721330132       -5.2996942241
 C         8.3004530108        3.7170489540       -4.2366308749
 C         7.8038884413        4.6031574893       -2.9960128158
 C         6.9357495059        3.5516833255       -2.2592336169
 C         5.4864954613        3.5869016689       -1.9483949604
 C         9.0617744358        4.9031015003       -2.2921541164
 C         7.0613201441        5.7932658281       -3.5242928814
 O         9.4099259752        3.2976128451       -4.4686281112
 O         7.4716755621        2.6054818571       -1.7452031140
 C         5.1338474718        3.7376191162       -0.4457924510
 C         3.8778164187        3.1756618693        0.0076498488
 C         3.1494569390        3.5843130794        1.4164021100
 C         2.5649238260        2.1675405292        1.9098594138
 C         3.4850389209        1.0295916324        2.0954503110
 O         3.4394822940        2.2750687479       -0.6334788281
 O         1.3323332578        1.9615631017        2.2068838181
 C         4.2094318538        4.1787679113        2.4824224917
 C         1.9719059732        4.4866910414        1.1966138238
 C         3.9405930524        0.7265100738        3.4327540667
 C         2.9602760833        0.3866576888        4.7046108480
 C         3.4163860005        0.7299501602        6.1254598570
 C         2.2365724387        1.6235162307        6.7911431306
 C         2.3849556808        2.1772450935        8.1613193718
 C         3.5376873369       -0.6356138131        6.8857129242
 C         4.8081907475        1.4755496106        6.3534992471
 O         2.0256372231       -0.2988044022        4.4614229895
 O         1.1509112986        1.6602771494        6.2524947295
 C         1.0994025837        2.4777160997        8.9287348852
 C         0.4530685242        3.7058783250        8.3468848130
 C        -0.8577375886        4.3485044137        8.8672403418
 C        -2.1190715842        4.1421253895        7.9727203939
 C        -1.8850467863        4.1236321213        6.3224770861
 O         1.2221793621        4.4012422452        7.6810719541
 O        -3.2738424529        4.1445666045        8.3803676861
 C        -1.1911391591        3.6644591920       10.2136289283
 C        -0.8098304106        5.9677224770        8.9454420135
 C        -2.8184362157        2.9574836578        5.7859487150
 C        -2.5306426868        2.6101888360        4.3437413441
 C        -3.7310419397        1.9711881694        3.4011521628
 C        -3.1846762328        0.6770300566        2.6028798492
 C        -4.2913718087        0.0557998079        1.7027397932
 C        -5.0368130582        1.8172974436        4.2101176076
 C        -4.0670459801        2.9847581963        2.3514582114
 O        -1.4345874644        2.7525268855        3.8799244656
 O        -2.1499024240        0.1751018932        2.8605747955
 C        -3.9524512883       -1.1204074409        0.7493816425
 C        -5.2227332730       -1.4601441887       -0.1961340360
 C        -5.2906916511       -0.9274502595       -1.6659552694
 C        -4.2924974485       -1.7321949846       -2.6400275793
 C        -4.7876803774       -2.7105093989       -3.6685801074
 O        -6.1995953391       -1.9015130793        0.4051217880
 O        -3.1855810163       -1.2376898678       -2.7264272028
 C        -6.7158470324       -1.1559974541       -2.2077362015
 C        -4.8750515570        0.5406738787       -1.5578639208
 C        -4.8058127008       -2.0202830867       -5.0293005376
 C        -3.9805430272       -2.7722469320       -6.1148960684
 C        -4.3790656808       -3.1397514123       -7.6201379788
 C        -4.8429296777       -4.6099672700       -7.5747772972
 C        -3.9618505560       -5.6565582337       -8.3878244512
 C        -5.6824706131       -2.4574439149       -8.1419645271
 C        -3.1079178165       -2.9732359131       -8.5031492765
 O        -2.8639907533       -3.1109102834       -5.8270508272
 O        -5.6606412024       -4.9235872260       -6.7392985356
 C        -4.0954413176       -7.0824824598       -7.8770178392
 C        -3.8721401648       -8.0435543001       -8.9470300509
 C        -2.9301761555       -9.4575576870       -8.7070698118
 C        -1.3969035463       -9.1510985774       -8.4709476955
 C        -0.1880364767       -9.7105430655       -9.2651238961
 O        -4.4465544873       -7.9102743304       -9.9912871122
 O        -1.1092172810       -8.5714069716       -7.3982018703
 C        -3.2074090889      -10.2658275948       -7.3392072797
 C        -3.1443699970      -10.3938046682       -9.8919878481
 H         7.3140624410        4.1443074001       -6.1064437095
 H         7.5056853918        2.4385575962       -5.7688276387
 H         6.0956820642        3.4990340349       -4.8323410405
 H         4.9323147317        4.3653000455       -2.5120457866
 H         5.0370253646        2.6231686549       -2.2194397323
 H         9.5638920166        3.9381092094       -2.0266296830
 H         9.0056724206        5.5630698437       -1.5122673943
 H         9.6868563392        5.3070005512       -3.0846375036
 H         6.7220317540        6.4496144288       -2.6457247001
 H         7.6864948464        6.4558433679       -4.0450416889
 H         6.1445747257        5.5152026623       -3.9640745539
 H         5.8174804167        3.0795504679        0.0794895076
 H         5.2158662094        4.8213947670       -0.0140325139
 H         2.8097889924        0.2091085037        1.8150119398
 H         4.4284172705        1.0772717284        1.4107956572
 H         3.9921779688        4.0985775114        3.5314682251
 H         4.0414148118        5.2885756050        2.4398870590
 H         5.2600800371        4.0060080510        2.4426286015
 H         1.3303396245        4.6176210529        2.1132056081
 H         2.3184068840        5.5155317248        1.0228316156
 H         1.2959066077        4.2179794768        0.3925004963
 H         4.5956735352        1.5904034862        3.7598994143
 H         4.5108338043       -0.2173722757        3.4295868530
 H         3.0696971199        1.4096847111        8.7087639234
 H         2.9062176708        3.1003815681        8.2538808653
 H         4.2741269276       -1.3135063744        6.4411195093
 H         2.5527310432       -1.1491608999        6.9362965294
 H         3.9206586114       -0.6574511611        7.8797288494
 H         5.6168028520        0.7391555757        6.0941607755
 H         4.7206352996        2.2067076306        5.4501349601
 H         4.8397839787        1.9640845802        7.3280389153
 H         0.4517572859        1.6396079462        8.8395959727
 H         1.3232779330        2.6596461870       10.0340839054
 H        -2.1898176131        5.0915496740        5.9012384796
 H        -0.8736288374        3.7748962075        5.9164005397
 H        -0.8372225667        4.1760460912       11.1276847275
 H        -0.6901023500        2.7155565845       10.2035622440
 H        -2.2738972925        3.6541049826       10.3062929779
 H         0.0254912476        6.3198279590        8.3198926215
 H        -1.6417003581        6.4944778760        8.5476673785
 H        -0.5718762297        6.1476326756        9.9963634886
 H        -3.8881619017        3.0757008068        6.0658063117
 H        -2.4585638022        2.0597498792        6.3341884537
 H        -5.0962549327       -0.1733022579        2.4156442259
 H        -4.7952541478        0.9885789216        1.2313244864
 H        -4.9123737774        0.9111387161        4.9438898163
 H        -5.9339642608        1.8230791000        3.5719681877
 H        -5.2389700552        2.7346654897        4.8112236372
 H        -5.0582335273        2.9345480807        1.9916067289
 H        -4.0105462836        4.1452879002        2.6662960691
 H        -3.4171117176        3.0795651556        1.4689079903
 H        -2.9912368732       -0.7776990151        0.2759166845
 H        -3.7216996017       -2.0677315271        1.2769593680
 H        -4.0213066947       -3.5027398422       -3.7463032710
 H        -5.6858470373       -3.2105376360       -3.3896351294
 H        -7.2070406600       -2.0161706535       -1.7621707200
 H        -6.6154260770       -1.3892592123       -3.2462413057
 H        -7.2690069302       -0.1762932034       -2.0794122325
 H        -3.8235980591        0.6356344586       -1.7829922773
 H        -5.4076467700        1.1589016686       -2.2212356243
 H        -4.9924651292        0.7830897926       -0.5555781335
 H        -4.4416629824       -1.0187548117       -4.9987639093
 H        -5.7783924245       -1.7956988392       -5.3828908871
 H        -4.1387636799       -5.5176630629       -9.4645794650
 H        -2.9184610425       -5.4418368153       -8.3379332072
 H        -5.4610670504       -1.4241150868       -8.1460890639
 H        -6.5683481296       -2.6265715713       -7.5180488619
 H        -5.6799826659       -2.8152079412       -9.1633303888
 H        -2.3127770938       -3.4225189414       -7.9411426343
 H        -3.1462677301       -3.2905001455       -9.5118018724
 H        -2.8935991330       -1.9278782595       -8.5026756766
 H        -3.4244614310       -7.3700006346       -7.1470395546
 H        -5.0766962428       -7.2307522386       -7.4174893740
 H        -0.2384426945       -9.5217836115      -10.2749612673
 H         0.6829676695       -9.3467718447       -8.8311148150
 H        -0.2367689318      -10.8458049621       -9.0450776388
 H        -2.6297299294       -9.6910235287       -6.5362046609
 H        -2.8723732102      -11.3291334670       -7.5937130911
 H        -4.2494265200       -9.9947723904       -6.9887405430
 H        -3.2160733772       -9.9298212964      -10.9308460462
 H        -2.5577092444      -11.3550029354       -9.9334352436
 H        -4.2327456543      -10.6898496742       -9.8702708174
 Na        0.2043396184        0.8621620767        4.0732354107
