155

 C         7.0962035953        3.5564937192       -5.4937134823
 C         8.1060865399        3.7021072525       -4.4525994300
 C         7.6000175145        4.4305892165       -3.0380023480
 C         6.7743605498        3.3288115177       -2.3402220897
 C         5.3987714558        3.7261013770       -1.9203344754
 C         8.8722785628        4.5598487594       -2.1464453067
 C         6.9762844139        5.8257933468       -3.2949511089
 O         9.2401327197        3.4458723335       -4.8216538246
 O         7.2498909963        2.2259107523       -2.0738804296
 C         5.1559910912        3.7146871562       -0.3138995241
 C         3.8523488241        3.0512577398        0.1380225089
 C         3.3443950560        3.5370272299        1.4499640702
 C         2.4542315061        2.2381534051        2.0584153997
 C         3.0910773048        0.9441434580        2.1317272738
 O         3.2335407311        2.1769917036       -0.5134458234
 O         1.3399093527        2.3586919688        2.3584256110
 C         4.3393339408        3.9570603451        2.4667218415
 C         2.3481124244        4.6275280512        0.9908185249
 C         4.2027551479        0.7674174997        3.3088282493
 C         3.2859244138        0.4243374779        4.5191013219
 C         3.5767929721        0.7381031785        6.0097010619
 C         2.2967132155        1.5659405215        6.6323320121
 C         2.5100702156        1.9580430050        8.1066515767
 C         3.8197642851       -0.6245243800        6.7547710571
 C         4.7850951493        1.7703468410        6.1180203836
 O         2.2002934706       -0.1591892630        4.2964615818
 O         1.2125588783        1.6240217120        6.1483610471
 C         1.2402786400        2.3939498279        8.8613576318
 C         0.6255840634        3.7361162138        8.3117186742
 C        -0.7413903254        4.2353291133        8.8863399752
 C        -2.0322752581        4.1084765594        7.8822784566
 C        -1.8359304830        3.9703528313        6.3988462088
 O         1.3148159175        4.4481220617        7.6400456529
 O        -3.0797119842        4.3215565066        8.4260840226
 C        -1.1235217523        3.7655965960       10.3217206030
 C        -0.5904309865        5.7981012119        9.0311186035
 C        -2.9053742628        3.1272075424        5.7416479632
 C        -2.5481066243        2.4649178888        4.3637221833
 C        -3.5846353615        1.9015829006        3.3732670081
 C        -3.3093750245        0.6816049245        2.5745648038
 C        -4.5632042722       -0.0235336591        1.9118408378
 C        -4.8548600122        1.6759303617        4.2791237420
 C        -3.8072275023        3.0667321870        2.3927351986
 O        -1.4124072755        2.4563612788        3.9294694497
 O        -2.2686406649        0.0106577335        2.7348125116
 C        -4.1686827001       -1.0071494874        0.7845856516
 C        -5.3817281966       -1.3356275215       -0.1481349234
 C        -5.3249369674       -0.7066165732       -1.6507018549
 C        -4.1984115961       -1.4618297804       -2.5931931167
 C        -4.6495417100       -2.5648456081       -3.5668019293
 O        -6.2345252079       -2.0864025437        0.2394132537
 O        -3.0209805599       -1.3732977978       -2.3872577058
 C        -6.8126046870       -0.7653690340       -2.1716633598
 C        -4.8720859161        0.8948577744       -1.8092387073
 C        -5.0423869441       -2.1656204739       -4.9992979609
 C        -3.8758234543       -2.6802385738       -5.9288529020
 C        -4.3232818747       -2.9672341374       -7.4596406179
 C        -4.6854533512       -4.6734380604       -7.3308026044
 C        -3.9997746436       -5.6838770313       -8.2170039322
 C        -5.7324540771       -2.2746836808       -7.9482269418
 C        -3.3450521417       -2.6202898480       -8.4473070796
 O        -2.7554724342       -3.0199030513       -5.5191220000
 O        -5.5312957615       -4.9997060376       -6.5683412755
 C        -4.0981340109       -7.1194220407       -7.7417675238
 C        -3.8014663588       -8.2422540566       -8.8911488232
 C        -2.8709039501       -9.4215149405       -8.6223648528
 C        -1.3554190394       -9.1039187354       -8.3890246056
 C        -0.4683777114       -9.7725069411       -9.3790012204
 O        -4.5113707729       -8.2893362739       -9.8722203717
 O        -0.9070675813       -8.4770876738       -7.4517011488
 C        -3.6707744789       -9.8931139228       -7.3303724287
 C        -3.0898994065      -10.3937449874       -9.7900332735
 H         7.2836166862        4.3388663392       -6.2117311596
 H         7.3385664341        2.6050703591       -5.9509102036
 H         6.1953344333        3.7495384248       -5.0719680686
 H         5.2089690800        4.7701433231       -2.1461525334
 H         4.7761031072        3.1527160299       -2.6325839978
 H         9.0368799171        3.7387662043       -1.4800570419
 H         8.7436809490        5.5996129312       -1.6034995622
 H         9.7524890804        4.7701392796       -2.8020249118
 H         6.9312821882        6.4721492409       -2.4963203846
 H         7.8450494671        6.3068236052       -3.7559988901
 H         6.0177869873        5.9161460647       -3.8570780490
 H         6.0537931390        3.1919553005        0.1238749853
 H         5.0795559431        4.7192757685       -0.0351347690
 H         2.2673689865        0.2599226853        2.3498767929
 H         3.4949210621        0.7354893225        1.2313911242
 H         4.0483369653        3.7251121253        3.4795594562
 H         4.5909353926        4.9792130882        2.5242390134
 H         5.3165138867        3.4158322055        2.4558820459
 H         2.1797910577        5.2334249463        1.8010310610
 H         2.8102633995        5.3392712404        0.4108651068
 H         1.4220665997        4.3784886196        0.4908351509
 H         4.7645022671        1.5902475170        3.6032357743
 H         4.7123262242       -0.1749906128        3.1456355358
 H         2.8450862633        1.1149104412        8.5910932625
 H         3.3760418108        2.7218353144        8.2261165163
 H         4.7408278941       -1.0162560563        6.6204996016
 H         2.9720158862       -1.2590906411        6.5220205564
 H         3.6940407114       -0.7400256151        7.8234418648
 H         5.5105628684        1.4739853050        5.4387854796
 H         4.4870591643        2.6832845092        5.8306634462
 H         5.0769426016        1.8013509598        7.1863338238
 H         0.6676912894        1.4018320271        8.9089772912
 H         1.5242485525        2.7764007904        9.8223947518
 H        -1.9816740992        4.9369932087        5.9598448749
 H        -0.8994701142        3.5223737148        6.1321085791
 H        -0.3136629644        3.3571316843       10.8570621493
 H        -1.7068420101        2.7770717962       10.2102249340
 H        -1.5950169760        4.5222691965       10.9046702282
 H        -0.7525300269        6.2250132513        8.0886354736
 H        -1.4604637123        6.1941446113        9.5790280069
 H         0.3387032341        6.0998241087        9.4671784242
 H        -3.7387808306        3.7787090051        5.5950699114
 H        -3.2540938791        2.2969228791        6.3314941436
 H        -5.2880595548       -0.6761671678        2.5087538408
 H        -5.2191333780        0.7783515913        1.6451093276
 H        -4.6732717536        0.9396510054        4.9541514755
 H        -5.7376162999        1.4608860672        3.5945090794
 H        -5.1263169490        2.6123845053        4.7804065234
 H        -4.8297070814        3.0993648785        1.8735529322
 H        -3.6000585966        4.0328583784        2.5819044720
 H        -3.1345230549        2.9209821147        1.5522242365
 H        -3.4645434123       -0.4249517279        0.2055792920
 H        -3.6216394725       -1.9349002552        1.0751761089
 H        -3.7938737479       -3.2941106137       -3.5997809165
 H        -5.5721757923       -3.1484415990       -3.1488637035
 H        -7.2036692839       -1.7020462001       -1.8585195225
 H        -6.9675282922       -0.7442582021       -3.2148811996
 H        -7.2632343149        0.1176521276       -1.7509943890
 H        -3.7623158818        0.9958740217       -1.7448321456
 H        -5.2978973606        1.0874039226       -2.8036634497
 H        -5.1647285541        1.5286378192       -0.9265083843
 H        -5.5049250575       -1.1604195553       -5.1640048100
 H        -5.9592754416       -2.7381465049       -5.3220031467
 H        -4.1350172859       -5.4212900498       -9.3124132854
 H        -2.8583534187       -5.5155640251       -8.1380522297
 H        -5.3053304098       -1.2713249406       -8.2165123907
 H        -6.3381346504       -2.1283741435       -7.0672826915
 H        -6.0561814324       -2.7287376394       -8.8898068154
 H        -2.2860937392       -2.8909815287       -8.1802611561
 H        -3.6528653440       -3.1103504550       -9.4061494488
 H        -3.4514664633       -1.5087935201       -8.6430847573
 H        -3.3724963607       -7.2313403800       -6.8394017256
 H        -5.0714315653       -7.4600616607       -7.3728076574
 H        -0.9530760331       -9.7157243849      -10.3781400866
 H         0.5683567993       -9.2300729302       -9.2803400022
 H        -0.2991468284      -10.7590698721       -9.0717657110
 H        -3.6515064967       -9.3180085438       -6.4535194739
 H        -3.3004532713      -10.8762529895       -7.3181015133
 H        -4.6711434464       -9.8530622559       -7.6767492352
 H        -2.9060788738      -10.0365001151      -10.7322980501
 H        -2.4991140143      -11.2730196845       -9.6337908532
 H        -4.1057828757      -10.6814675684       -9.9148803891
 Na       -0.1280690008        0.5237688473        3.6479843672
