155

 C         6.0972449544        4.4976894725       -5.9843900644
 C         7.3821759587        4.1080135399       -5.0692045067
 C         7.1303837777        3.6363889268       -3.4681087050
 C         5.8254454163        2.7815285764       -3.3511630998
 C         4.5553722765        3.3804536204       -2.7413902028
 C         8.3601543724        2.7655375761       -3.2354203333
 C         7.2405692863        4.9020964702       -2.6406298901
 O         8.5278938221        4.3824486581       -5.3931793450
 O         5.8899310520        1.5803384483       -3.6366270504
 C         4.6369330550        3.1240707800       -1.1871757361
 C         3.3038817540        3.3085730070       -0.4036951774
 C         3.4533440590        3.1784835590        1.2637985501
 C         2.6233508038        1.9442316931        1.8070374725
 C         3.2677560084        0.5724206279        1.3949033320
 O         2.2284747066        3.4373968781       -0.8727255758
 O         1.7477901531        2.1493298707        2.5694959106
 C         4.9992410637        3.1467623706        1.7180567603
 C         2.7928995594        4.5086712033        1.7308683914
 C         3.8996540309       -0.0802423867        2.6838498694
 C         2.8521765366       -0.0886624567        3.8213518552
 C         3.2645194534        0.5800293506        5.2989309510
 C         2.0315068938        0.7738107988        6.1776282062
 C         2.3494832125        0.6601706501        7.7123070248
 C         4.3221705787       -0.2656997464        5.9927472396
 C         3.6977763971        2.0887965843        4.8854184264
 O         1.7961134527       -0.7150533991        3.6589345478
 O         0.9592192574        1.0046125493        5.5844617862
 C         1.4843905951        1.6278931031        8.5444114944
 C         1.4218123435        3.2061583723        8.1496845815
 C         0.2865200642        4.2015084194        8.5671445583
 C        -1.0524644982        3.6225946020        7.8545710597
 C        -1.1398170562        3.9427105601        6.3948424001
 O         2.4560749582        3.6492560980        7.5789840338
 O        -1.9109322320        3.0287014874        8.5155677348
 C         0.0375043734        4.2159231272       10.1265865917
 C         0.5798059617        5.6418427329        7.9982623278
 C        -2.5899741279        3.6626655544        5.8538388829
 C        -2.5831257920        2.1949470851        5.0085571697
 C        -3.5711271633        2.0581924914        3.7642745753
 C        -3.0574303098        0.8356753896        2.6943994613
 C        -3.9744194452        0.0110528814        1.8809272900
 C        -4.8650147508        1.4509450648        4.4265704565
 C        -3.7973318176        3.2753958717        2.9277185781
 O        -2.0723659338        1.2455402186        5.5888676443
 O        -1.8718457657        0.6536212942        2.6780614544
 C        -3.6666172548        0.0826211020        0.4235805109
 C        -5.1074933983       -0.0964088685       -0.2307359386
 C        -5.2029270516        0.0118011210       -1.8261310560
 C        -3.8635108380       -0.8527326080       -2.2427307646
 C        -3.7019343613       -2.3113291595       -2.2783553532
 O        -6.1029873585       -0.1366242534        0.3781765353
 O        -2.9038793162       -0.1628220001       -2.4851281626
 C        -6.4433539274       -0.7266997906       -2.4414252500
 C        -5.0856793198        1.4404694275       -2.2976799394
 C        -4.1856417762       -3.1490140587       -3.5760574976
 C        -3.8127273200       -2.5733508496       -5.0209214247
 C        -4.7961387998       -2.9391293005       -6.2424331469
 C        -5.0535316660       -4.5428828966       -6.3849661463
 C        -4.1004215139       -5.3806543793       -7.3038881736
 C        -6.2312602098       -2.2121531250       -6.1344887274
 C        -4.0645610240       -2.4801414338       -7.5360046413
 O        -2.7517051948       -2.0144235102       -5.0532267241
 O        -5.9703917960       -5.0196198047       -5.8955267830
 C        -4.4051673075       -6.9608972881       -7.1292693293
 C        -3.6664093107       -7.7178249962       -8.2304639820
 C        -3.2470995933       -9.1391775627       -7.9774602496
 C        -1.7264553248       -9.2778641589       -8.3117197529
 C        -1.4550810795       -9.1757877620       -9.8332928232
 O        -3.4307526275       -7.0192718697       -9.2046556058
 O        -0.9669165249       -9.5743830458       -7.3816918307
 C        -3.5242285537       -9.6997513124       -6.5510260459
 C        -3.8761692034      -10.1674211730       -9.0143846096
 H         5.1901916047        3.8601333349       -6.0400714386
 H         5.6121739305        5.4099683464       -5.5719451095
 H         6.5788362317        4.8681984040       -6.9956706302
 H         4.7069321212        4.4276489690       -3.0233308433
 H         3.7532730694        3.0064777589       -3.3037883044
 H         8.4512615422        2.1468559235       -4.1738151696
 H         8.1860391310        2.1778645864       -2.4022643386
 H         9.2203328370        3.4234629177       -3.2284678515
 H         7.3314968349        4.7552326710       -1.5369397850
 H         8.1946178118        5.3109200445       -2.8824515864
 H         6.3437942615        5.5216222752       -2.9033284901
 H         5.1810014833        2.2068864604       -0.9019568117
 H         5.3232185626        3.9578919798       -0.8761475922
 H         2.5751935854       -0.1959674897        1.0256491862
 H         4.1144732940        0.6961941326        0.6299922907
 H         5.1751582823        3.4703455745        2.7410090819
 H         5.7166162737        3.8273702809        1.1343772074
 H         5.3538773097        2.1018279824        1.6953573604
 H         2.1398947760        4.4629432472        2.6699461290
 H         3.4223028323        5.4081269629        1.3974069142
 H         1.8773542905        4.5429882006        1.0827662066
 H         4.8705829093        0.4986007342        2.9447160290
 H         4.1607012529       -1.1335817001        2.4634618300
 H         2.2615932191       -0.3411140837        8.0714150633
 H         3.4339630778        0.9570757170        7.9350790860
 H         5.2175982909       -0.4405581000        5.2442170133
 H         3.9740778029       -1.2917702726        6.2034456723
 H         4.9533842732        0.2409403999        6.7392330471
 H         4.7992788065        2.0136744557        4.4938123048
 H         2.9981568859        2.5908643923        4.1255834139
 H         3.8204635798        2.8341692724        5.6963660246
 H         0.4282973223        1.4572906341        8.8062976076
 H         1.9969755834        1.5383546420        9.5510786468
 H        -0.7329581379        4.8938572785        6.1339273613
 H        -0.4310988404        3.2681369411        5.7997802154
 H         0.3788728071        3.2772716599       10.6267700428
 H        -0.9687183217        4.4559046736       10.3531503964
 H         0.7143698626        4.8595557625       10.7713749495
 H         0.3283388085        5.9602417482        6.9821171791
 H         0.0354789199        6.3415890366        8.6488851971
 H         1.6473821043        5.8803585892        8.2105320053
 H        -3.0324999648        4.5434896429        5.4323267315
 H        -3.2135422752        3.4863616987        6.8089202713
 H        -3.8974649726       -0.8996669998        2.4168534542
 H        -5.0725089304        0.4547172212        2.0380045242
 H        -4.8768310744        0.3462320394        4.6206373496
 H        -5.7817264834        1.9411257221        3.8635631928
 H        -5.1853378932        2.0183300735        5.3956458717
 H        -4.6055169668        3.0217853911        2.2652193473
 H        -4.0688822717        4.2778491479        3.3111153777
 H        -2.8357223676        3.5304193919        2.3665126949
 H        -3.3030982606        1.0521510501        0.1604507880
 H        -3.1369568318       -0.7590357145        0.0024473180
 H        -2.6928583966       -2.4921430484       -2.1298486511
 H        -4.1914698515       -2.7812949742       -1.4526223617
 H        -6.7025923668       -1.7417848287       -2.0748638502
 H        -6.2282977040       -0.8615888787       -3.5777298949
 H        -7.3708848841       -0.1606866813       -2.3873135515
 H        -5.7972547577        1.9894832117       -1.6137987041
 H        -4.0898299185        1.5933439275       -1.8698161107
 H        -5.2661549914        1.5540121187       -3.3528672066
 H        -5.2208421643       -3.2411485065       -3.4751143360
 H        -3.6538168282       -4.0516256565       -3.4927464713
 H        -4.2402201357       -5.1651820120       -8.3873440091
 H        -3.0951515450       -5.2021537582       -6.9936099141
 H        -6.0331057323       -1.2763686789       -6.6524350033
 H        -6.6136453819       -2.1831517543       -5.1060017891
 H        -6.8731180220       -2.9184437189       -6.6693637489
 H        -3.1696613593       -3.1576334186       -7.5983494048
 H        -4.6273399859       -2.5813336285       -8.4614766745
 H        -3.5618350130       -1.4713606538       -7.5712667263
 H        -3.9369762894       -7.1388209159       -6.1665738991
 H        -5.4195086239       -7.2355920692       -6.9563488000
 H        -1.8637123811       -8.1230464724      -10.0383023052
 H        -0.4437429493       -9.2951836825      -10.1834550990
 H        -2.0154465046       -9.9539922512      -10.1922959105
 H        -2.7015286362       -9.3697045175       -5.9311876893
 H        -3.4470590754      -10.7620773192       -6.4252275344
 H        -4.4337586292       -9.4068465355       -6.0242759649
 H        -4.1234284581       -9.8479947694      -10.0550180376
 H        -3.3878131398      -11.1134445058       -8.9966500266
 H        -4.8992403319      -10.3384184399       -8.7193256122
 Na        0.0563447752        1.1866637589        3.5616676285
