155

 C         5.9160610933        4.5360105061       -5.8233178664
 C         7.2167354340        4.1779522766       -5.1639143707
 C         6.9931436261        3.5646779279       -3.6692602718
 C         5.7398876566        2.7576759347       -3.4773580345
 C         4.4495166948        3.3120448116       -2.6619461741
 C         8.2573014897        2.4787518010       -3.4083150737
 C         7.0746561356        4.6837657261       -2.5516056143
 O         8.2927480707        4.5105523829       -5.5495041432
 O         5.6216264739        1.6533685815       -3.8536411873
 C         4.5243781479        2.7773291067       -1.2910646829
 C         3.3239988958        3.2890137207       -0.4949722213
 C         3.5607362062        3.2190114858        1.1971396377
 C         2.6468964011        1.9658242129        1.6379484423
 C         3.0945299880        0.5325190666        1.4148082493
 O         2.2249785592        3.4349817422       -0.9531730757
 O         1.4616802620        2.1912521380        2.0586817014
 C         5.0386496176        3.0290093977        1.6906529174
 C         2.9182793907        4.5451448988        1.7948831310
 C         3.9659933227       -0.0577457444        2.5963395618
 C         2.8995823675        0.0222136412        3.9287170369
 C         3.3603027351        0.5902470666        5.2520279325
 C         2.0852803815        0.6618277159        6.2633773512
 C         2.3448072785        0.4970997769        7.7900792612
 C         4.6134611816       -0.3453797092        5.6673365038
 C         3.9757430867        2.0200869926        5.2090115688
 O         1.8046097614       -0.4251189780        3.6471281082
 O         1.0544925454        1.0523286900        5.7610567298
 C         1.3994420166        1.5047489298        8.5639961411
 C         1.6363020723        2.9628243313        8.0974945039
 C         0.5442591343        4.0243274089        8.4854788297
 C        -0.8850893429        3.4359142102        7.8314005282
 C        -1.3703615387        3.8812329480        6.3752106305
 O         2.5867952982        3.3062735151        7.4979408274
 O        -1.6733491700        2.9255295472        8.5809237630
 C         0.3372210245        4.1428832958        9.9591850980
 C         1.0605642136        5.4174127455        7.8619981725
 C        -2.7593685203        3.4861400756        5.9054074276
 C        -2.5908972476        2.3301318587        4.9911449530
 C        -3.7115720664        1.9590404109        3.9568753243
 C        -3.1136956535        0.9246599562        2.8944728755
 C        -4.1246230079        0.0317419304        2.0711871009
 C        -5.0801062100        1.7667297826        4.6513552807
 C        -3.9808020635        3.0551022878        2.9625960729
 O        -1.6455220850        1.5309561472        4.9368639447
 O        -1.8788943861        0.9202040130        2.6635209102
 C        -3.9515939788        0.6057247797        0.6662385230
 C        -5.1649658285        0.0896803400       -0.2975571066
 C        -5.0221314827       -0.0257284116       -1.8787027932
 C        -3.6581709728       -0.6707790540       -2.3197950215
 C        -3.5388684433       -2.2578116160       -2.4573981684
 O        -6.3079977963       -0.0491887955        0.1569754831
 O        -2.6359499623       -0.0265486079       -2.3670897219
 C        -6.3735728323       -0.8869243371       -2.2197083357
 C        -5.0957342985        1.4867386451       -2.6094813141
 C        -4.3489529181       -2.8527602760       -3.6392358559
 C        -3.8199415646       -2.6662866060       -4.9942434471
 C        -4.8669756800       -2.8976960670       -6.1596097942
 C        -5.1514063935       -4.4334745464       -6.1186367840
 C        -4.0287202454       -5.3095413699       -6.7787510739
 C        -6.1973513138       -2.0762277999       -5.7887201752
 C        -4.3712609749       -2.2788482097       -7.4338057534
 O        -2.6847334730       -2.2967978422       -5.2601846376
 O        -6.1567306954       -4.8276006240       -5.4296498397
 C        -4.1388943833       -6.7979577945       -6.8884728106
 C        -3.6560395665       -7.5872577749       -8.0931330551
 C        -3.2681029968       -9.1951526847       -7.9491019231
 C        -1.6570800672       -9.4334762188       -8.3521797650
 C        -1.0093045375       -9.2721832654       -9.8454164090
 O        -3.5405547298       -7.0895949050       -9.1951788307
 O        -0.9695281397       -9.9237611719       -7.4943394593
 C        -3.5091434868       -9.6574254493       -6.5425953757
 C        -4.2663861905       -9.8949970927       -8.9129529990
 H         5.5091764756        3.6837975105       -6.3361096292
 H         5.1095610090        4.5974139157       -5.0960951157
 H         6.0156001663        5.3838645711       -6.5001263253
 H         4.4771615686        4.4015803792       -2.7973537554
 H         3.5874606731        2.9255750321       -3.2832974221
 H         8.1063827672        1.6327909575       -3.9823899254
 H         8.3131391625        2.1685891317       -2.3456062553
 H         9.0327754593        2.9827310724       -3.8827647469
 H         6.9319081279        4.3174432027       -1.5684367656
 H         8.1281267646        5.0107465012       -2.4562483054
 H         6.2403611772        5.3157235713       -2.7528746986
 H         4.5538937610        1.6540828965       -1.3140522195
 H         5.4734963602        3.0469436701       -0.8226746989
 H         2.1836240839       -0.0680188047        1.4737550618
 H         3.5866296755        0.4522187077        0.4913327734
 H         5.1050102977        2.6215750900        2.7116548413
 H         5.4274923962        4.0028015827        1.7102892746
 H         5.6546927674        2.3437773375        1.0751917390
 H         3.0372606078        4.5274524630        2.8292195509
 H         3.4701733682        5.3370610828        1.3929833221
 H         1.8481879130        4.6310154655        1.8193850985
 H         4.8147773762        0.5157937824        2.6195253202
 H         4.1740142048       -1.1213889045        2.4202489287
 H         2.2303914134       -0.5390672544        8.2132140340
 H         3.4077602425        0.7031422436        7.9655328129
 H         5.0012718598       -0.8362084311        4.8550670821
 H         4.3171411491       -1.0393362913        6.4647991063
 H         5.4738705790        0.2182207003        5.9359686526
 H         4.7901368149        2.0089122694        4.5834497984
 H         3.3742019968        2.8371385602        4.8290176133
 H         4.2514268995        2.3469691454        6.1933237764
 H         0.3195253093        1.2278446766        8.3932942565
 H         1.4515585336        1.3439955920        9.6522844856
 H        -1.2414253851        4.9834596057        6.2289152803
 H        -0.6463695259        3.5768864453        5.6984795183
 H         0.1926314302        3.2242714560       10.4632401424
 H        -0.6295834211        4.6773942015       10.1764994505
 H         1.1332341078        4.5321846956       10.4607719750
 H         0.6336206932        5.5564350107        6.8570086600
 H         0.8724029490        6.3144293616        8.5108705821
 H         2.1465608424        5.3900938167        7.8335317117
 H        -3.2670844045        4.3567324417        5.4014729018
 H        -3.3567701088        3.3332989459        6.7632568865
 H        -3.7924724790       -1.0625139474        2.1662627069
 H        -5.0944672615        0.1442032675        2.3772535357
 H        -4.8490529286        1.0799687209        5.4888191980
 H        -5.8280039816        1.4325896939        4.0973284146
 H        -5.4872553526        2.6406931736        5.0716805309
 H        -4.7502366778        2.8218527493        2.1986805799
 H        -4.4246874689        3.9441866889        3.5180780436
 H        -3.1036113751        3.4528006331        2.5593531415
 H        -4.2483323340        1.7005268352        0.7194491194
 H        -2.9971709173        0.3425050498        0.1501202650
 H        -2.4594697083       -2.6072051720       -2.5258557301
 H        -3.9010047930       -2.8164032854       -1.5534739243
 H        -6.3595494965       -1.8965917531       -1.9410237963
 H        -6.5991032450       -0.8840837384       -3.2024973884
 H        -7.2493197386       -0.3214367991       -1.8455087426
 H        -5.5568412125        2.2097113479       -2.0021695504
 H        -4.1801738311        1.6608046641       -3.1008835722
 H        -5.9119899859        1.1944375305       -3.2522851015
 H        -5.3573306412       -2.3769858491       -3.5995715116
 H        -4.4028392070       -3.9481425668       -3.4262146603
 H        -3.8236453801       -4.8537845718       -7.7426699816
 H        -3.1753113535       -5.1992192810       -6.0290913847
 H        -5.9655008727       -1.1688228737       -5.2740120408
 H        -6.6461578306       -2.8295830295       -5.2011104352
 H        -6.8193168116       -1.9910880045       -6.6438018387
 H        -3.3772633245       -2.4565517853       -7.7456530984
 H        -5.0611395293       -2.5122991983       -8.2270658335
 H        -4.4561995653       -1.2341603730       -7.3975674710
 H        -3.8093821860       -7.1338044438       -5.8958950529
 H        -5.2046216353       -7.0829372652       -6.9118271154
 H        -1.2598741228       -8.3246458662      -10.2487448842
 H         0.0946355270       -9.2504602030       -9.7011458920
 H        -1.1733504349      -10.3333003035      -10.4082939606
 H        -2.9767987446       -9.1656320013       -5.6596650883
 H        -3.0625210027      -10.7035096893       -6.3738536949
 H        -4.5982860261       -9.7092411007       -6.2754499978
 H        -4.5912113509       -9.2512753045       -9.7088507567
 H        -3.7296493121      -10.7755732818       -9.3877490184
 H        -5.2985761957      -10.1949016288       -8.6240845134
 Na        0.1438317461        1.2422758762        3.5930011041
