155

 C         5.5731709015        4.5598813220       -5.7651935894
 C         6.9092764520        4.2445754322       -5.0344279919
 C         6.9032928844        3.3751263596       -3.6941331216
 C         5.5883827030        2.6269228916       -3.6031142912
 C         4.3933056026        3.2003683894       -2.7851208268
 C         8.1443112273        2.4316724123       -3.6358401373
 C         7.2990556929        4.5929595534       -2.6459288119
 O         7.9647191921        4.5357602068       -5.5052092099
 O         5.3659764467        1.6273140854       -4.3526038713
 C         4.4381495617        2.4974454640       -1.4421380283
 C         3.4070500753        3.1655733610       -0.5041085689
 C         3.6300255731        3.2205309429        1.0350613495
 C         2.5502802469        2.0965150033        1.4193255703
 C         3.0691555963        0.6586556301        1.3592973172
 O         2.3056477181        3.6975025209       -0.8209873942
 O         1.4034046697        2.2899448362        1.6977328865
 C         5.0589434208        2.9545599249        1.4512923483
 C         2.9983014473        4.4894058986        1.6136864828
 C         3.7977072333        0.1986914753        2.6370933445
 C         2.9258732441        0.0110882240        3.8525748470
 C         3.5391235814        0.5315480479        5.2960161649
 C         2.3563910131        0.6613965406        6.3258307553
 C         2.4200036171        0.4133318898        7.8887484832
 C         4.4453200498       -0.6362730972        5.7835586978
 C         4.2580451384        1.8967219464        5.1373680151
 O         1.7645273404       -0.3464144100        3.9543171382
 O         1.2927919409        1.0707542776        5.9079208028
 C         1.2950502413        1.2129442827        8.4387473551
 C         1.5992584804        2.6793821955        7.9915350416
 C         0.6612672048        3.9361619162        8.2949169190
 C        -0.7349952164        3.6075731463        7.8328331079
 C        -1.3772357622        4.1867696748        6.5113516500
 O         2.7106104642        2.8719043843        7.4514832538
 O        -1.3630027794        2.7496165372        8.4063541265
 C         0.7827430909        3.9448236188        9.9173309376
 C         1.2253905974        5.2661414261        7.7331652148
 C        -2.6966643115        3.3990369492        6.2228757110
 C        -2.4597241286        2.4445619492        4.9615614250
 C        -3.7149778683        2.0218650862        3.9525027066
 C        -3.3652713697        1.0639912967        2.7920764697
 C        -4.2910567049        0.2645001291        1.8790782689
 C        -4.9001863539        1.4725754762        4.6845780268
 C        -4.0177221680        3.4806367306        3.2950321128
 O        -1.3863635313        1.9189775537        4.8830329278
 O        -2.2318372925        0.8254072144        2.5337152802
 C        -4.2201801930        0.9072448029        0.5324138073
 C        -5.2958858114        0.3064404225       -0.2779394813
 C        -5.1277403045       -0.0590252504       -1.7848763301
 C        -3.5968994199       -0.6425961382       -2.1730360959
 C        -3.3759240040       -2.1278434879       -2.5393376365
 O        -6.3506776575        0.0689448558        0.2419702134
 O        -2.6547850653        0.1802636146       -2.1416105759
 C        -6.2882574161       -0.8591663377       -2.2200798790
 C        -5.0818034895        1.4541472571       -2.6265769737
 C        -4.2374610303       -2.9521212623       -3.5403153736
 C        -3.9247680131       -2.5717615120       -4.9952281173
 C        -5.0045235786       -2.7501470609       -6.0477899211
 C        -5.0301409162       -4.4388358687       -6.0225997145
 C        -3.8683865228       -5.1866747670       -6.8051812992
 C        -6.3123511485       -2.1550085268       -5.7248357989
 C        -4.5028138050       -2.2352691899       -7.4775217314
 O        -2.7737102627       -2.6499432649       -5.3506140779
 O        -5.8808581036       -4.9687536093       -5.3711395116
 C        -4.1447550755       -6.7939347075       -6.5956858739
 C        -3.5591347355       -7.4957288946       -7.7867433458
 C        -3.3181973824       -9.1068315719       -7.8925895230
 C        -1.7562563472       -9.5023529402       -8.2526594315
 C        -1.3651431069       -9.0755737235       -9.6750457501
 O        -3.4572574767       -6.8384524865       -8.8085307043
 O        -1.0879103374      -10.1264480799       -7.4832535956
 C        -3.5004675437       -9.8233238472       -6.4691680382
 C        -4.2552397401       -9.5760731454       -8.9517631232
 H         5.3422085177        3.8925613522       -6.6261182600
 H         4.7777406100        4.2989145041       -4.9863219384
 H         5.5900352899        5.4884822963       -6.2110840930
 H         4.4808669409        4.3144031682       -2.6892553130
 H         3.4459229142        2.9877766501       -3.2484887386
 H         7.8521239695        1.4002134155       -4.0344432752
 H         8.2079267606        2.2557161938       -2.5718496579
 H         8.9734730259        2.7988954823       -4.3250445792
 H         7.2347500708        4.2582834172       -1.5811600827
 H         8.3219669084        4.9092902549       -2.8104236266
 H         6.5209187979        5.3049434611       -2.6855607576
 H         4.1256922732        1.4870223449       -1.5426634091
 H         5.4093493574        2.3569175644       -0.9292556054
 H         2.2343187252       -0.0363794562        1.2339948605
 H         3.8791049235        0.5903635681        0.5218170417
 H         5.0415093266        3.1224562224        2.5633327899
 H         5.6442188140        3.7515922295        0.8844607165
 H         5.5200958471        2.0040286743        1.2956700213
 H         3.3753910718        4.6760134720        2.6581003029
 H         3.5690656803        5.2891404295        1.1445994184
 H         1.9071930183        4.5167619322        1.7518044019
 H         4.5326136528        1.0199160006        2.9502122684
 H         4.2488421617       -0.7630190144        2.4406487046
 H         2.3127104268       -0.6616923425        8.1015533679
 H         3.4158638095        0.6243385580        8.2544613492
 H         5.0386408450       -1.0156755682        4.8224812234
 H         3.8723114625       -1.3407836127        6.4205408631
 H         5.2764439629       -0.2636782107        6.4755773586
 H         4.7981352859        2.0305801824        4.1222778699
 H         3.4938324571        2.6438236565        4.8932850639
 H         4.6247129146        2.3864920424        6.0722555076
 H         0.4211572807        0.5935423925        8.2115626680
 H         1.1715686095        1.2161504286        9.5350017535
 H        -1.6566381516        5.2324687671        6.5837236795
 H        -0.6387511747        4.3070159109        5.6208393527
 H        -0.1406045299        3.5107209987       10.4191009862
 H         0.7093348160        4.8644075591       10.4215143475
 H         1.7048887817        3.3400442754       10.3190308032
 H         1.5081081407        5.0840205439        6.7099690211
 H         0.4329242870        5.9284733343        7.7509936952
 H         1.9830814959        5.7944648828        8.2736371092
 H        -3.4243941551        4.1514014420        6.1261562135
 H        -2.9268395162        2.9490177296        7.2291600167
 H        -4.0568185154       -0.7335556034        1.6170103202
 H        -5.3604217433        0.3376821215        2.2734907605
 H        -4.6526464867        0.9629329385        5.6294044609
 H        -5.3261920769        0.6476166945        3.9889526881
 H        -5.7199184757        2.1577943661        4.9501459575
 H        -4.9970937723        3.3875132544        2.7814327670
 H        -3.9664012221        4.3121653473        3.9286067719
 H        -3.2573725415        3.6089084009        2.4468554827
 H        -4.6057386154        1.8637383751        0.5028596183
 H        -3.2914599522        0.8057358276        0.0596090221
 H        -2.3672118299       -2.4200352862       -2.7210473689
 H        -3.5738663965       -2.6631033838       -1.5988251041
 H        -6.1528205124       -1.8869070978       -1.7596759677
 H        -6.2786404428       -1.0665568641       -3.3572864182
 H        -7.2291509326       -0.3895017619       -2.1540688115
 H        -5.7914265920        2.0823683094       -2.0756859920
 H        -3.9724080588        1.6102824325       -2.6829506425
 H        -5.5990564126        1.3169598932       -3.5783007750
 H        -5.2608194505       -2.9213380002       -3.2541630594
 H        -3.8620241641       -3.9697984755       -3.3371676069
 H        -4.2396454216       -5.1596329582       -7.8396203425
 H        -2.8951562224       -4.8583875412       -6.6346579627
 H        -6.0588279153       -1.1073813359       -5.4572782237
 H        -6.9956239744       -2.6700829509       -4.9955533888
 H        -6.7078032873       -2.1249587432       -6.7557212545
 H        -3.4167799069       -2.2203830574       -7.5972187922
 H        -4.9206063258       -2.8041054647       -8.3300354314
 H        -4.8507811187       -1.2211925954       -7.7632638589
 H        -3.7381628300       -7.1820888718       -5.6568020896
 H        -5.2642113897       -6.9354460928       -6.5709728815
 H        -1.9178601016       -8.1795828082       -9.9604936051
 H        -0.3538320717       -8.7196058931       -9.7747061335
 H        -1.4639427738       -9.9173420335      -10.1600054951
 H        -2.7572414907       -9.6472208675       -5.8000608547
 H        -3.3877779193      -10.8299379782       -6.6168568175
 H        -4.3526725654       -9.6053847836       -5.9252613948
 H        -3.9635691362       -9.3497601328       -9.9879009333
 H        -4.3862574665      -10.5967676095       -8.9155758886
 H        -5.1512905456       -9.0540096288       -9.0032385093
 Na        0.2508870058        1.1038409571        3.6572023286
