155

 C         4.6488448845        4.7390923939       -5.7868275033
 C         6.1297078372        4.1889614746       -5.4120803267
 C         6.0699211687        2.8959113492       -4.5083632425
 C         4.7204565121        2.3109856350       -4.3273245599
 C         3.7367359556        3.0573966535       -3.3078370015
 C         6.8843379247        1.8723429082       -5.3105206584
 C         6.7081176565        3.1834093375       -3.1531417845
 O         7.0796862462        4.9022363210       -5.6457476998
 O         4.2842248833        1.3634205722       -5.0400440852
 C         3.4969652377        2.3191176186       -1.8977150843
 C         3.1345192303        3.3187523246       -0.8210454339
 C         3.6842488884        3.3468758963        0.6682244604
 C         2.9664597861        2.0668083748        1.1884957135
 C         3.2799346882        0.5649013043        0.8700125311
 O         2.2475732048        4.0677904376       -1.2588969835
 O         1.9223824515        2.2706036540        1.8330080355
 C         5.3365645760        3.1490466299        0.8638572995
 C         3.3455924990        4.6788751139        1.3236305562
 C         3.8371541203        0.0361257993        2.1989925022
 C         2.9090540265       -0.1851261269        3.4227860708
 C         3.4326117180       -0.5832930887        4.8732236310
 C         2.4722874727        0.0930820200        6.0211556506
 C         3.0355982621        0.0627169129        7.4567166820
 C         3.2402064186       -2.1351839340        4.9288351581
 C         4.9657885705       -0.4649861117        5.1354559629
 O         1.7116112415        0.0166850534        3.4142025539
 O         1.3574655689        0.4557584241        5.8261931411
 C         2.4071705088        1.0443721374        8.3946702176
 C         2.2707052507        2.4099450753        7.8809318199
 C         1.3555875117        3.5215485547        8.5349519139
 C        -0.2111642541        3.0999848521        8.0622268073
 C        -0.9395546285        4.1543475190        7.1989890000
 O         2.9695926108        2.7005946607        6.8843821386
 O        -0.6940776173        2.0399103268        8.3517546891
 C         1.2587700158        3.4390857390       10.0250827794
 C         1.8292331658        4.8786571869        7.8849091838
 C        -2.2562645911        3.6566964973        6.5517225186
 C        -2.0763387422        3.2365997871        5.0849248752
 C        -3.4288404534        2.6684189153        4.3807865972
 C        -3.0366701182        1.8550334919        3.1128382767
 C        -4.0767112123        1.2721921669        2.1872681928
 C        -4.1296782208        1.7298432814        5.3614638344
 C        -4.3141903667        3.8779809957        3.9249382521
 O        -0.9789382952        3.3308146318        4.6325112398
 O        -1.8503617245        1.7312848252        2.7366512157
 C        -3.8260000808        1.2557601227        0.6931076595
 C        -5.1113433525        0.5470098365       -0.0816117987
 C        -5.2021718004        0.7441976470       -1.6216173696
 C        -3.9728584566       -0.3278669686       -2.0045058921
 C        -4.2286891138       -1.8996361011       -1.7384604672
 O        -5.8307461962       -0.1575757091        0.5772364825
 O        -2.8676165274        0.1306795829       -2.1716377985
 C        -6.5601991045        0.3058685449       -1.9950789457
 C        -4.8987187738        2.0103176381       -2.3793162880
 C        -4.7878347321       -2.7598989700       -2.9688497062
 C        -4.4322841843       -2.1701068390       -4.3419827233
 C        -4.7861374517       -2.9133228668       -5.6710041439
 C        -4.5619424532       -4.5589982710       -5.5317807853
 C        -3.5240477065       -5.2551389297       -6.4648199823
 C        -6.3426652572       -2.5685861617       -5.7162208460
 C        -4.0395623469       -2.4137906869       -6.9489965991
 O        -3.9353429618       -1.0579901247       -4.4029289109
 O        -5.1361311424       -5.1697113612       -4.7531636090
 C        -3.5606550917       -6.7908756192       -6.3170963238
 C        -3.1522111958       -7.5215730764       -7.6913202931
 C        -3.6727768038       -9.0238280024       -7.7781630483
 C        -2.2565306600       -9.8561941278       -8.0277981416
 C        -1.6440685361       -9.8725060158       -9.4420685819
 O        -2.5965789860       -7.0258422559       -8.6111091414
 O        -1.4739977272      -10.0502229708       -7.0699378151
 C        -4.2616529537       -9.6992131568       -6.4721275166
 C        -4.8335519089       -8.9829355280       -8.8110961523
 H         4.1511711041        5.1160020550       -4.8097894055
 H         4.7429881286        5.4842514725       -6.7025019450
 H         4.0487176806        3.9753084581       -6.1660807240
 H         4.1387137392        4.0498683330       -3.1459531262
 H         2.8302640063        3.1090118106       -3.8539488931
 H         6.2886008691        1.7949074106       -6.2907777921
 H         6.7957456904        0.9102327539       -4.8039992639
 H         8.0090169470        2.0903959501       -5.3302155219
 H         6.7757028711        2.2093123312       -2.6975154595
 H         7.6630432795        3.5996914644       -3.2693173287
 H         6.0512694126        3.9086421448       -2.5674805398
 H         2.6932688418        1.5682896831       -2.0675427495
 H         4.3891764574        1.7751303573       -1.8688637499
 H         2.3237305023        0.0586640495        0.4678897967
 H         3.9972470144        0.4675762908        0.0439629536
 H         5.6170006705        2.8230563025        1.8494755753
 H         5.7087153163        4.2145315716        0.8847942504
 H         5.7598695611        2.4891004994        0.0676189049
 H         3.4041734020        4.4963699639        2.4223809084
 H         3.8203448361        5.5709478932        0.7979278744
 H         2.2892001277        4.9209860793        1.1547337868
 H         4.7220419623        0.6583826152        2.4663932615
 H         4.3920171332       -0.9440192065        2.0349099238
 H         2.8887073580       -0.9521957402        7.7097577186
 H         4.1403179356        0.4325634585        7.4912166461
 H         4.2015482050       -2.7335917259        4.6102524611
 H         2.3976696271       -2.5647079431        4.3438571547
 H         3.2538945364       -2.2550470305        6.0307201824
 H         5.6788907432       -1.0595223899        4.4984379492
 H         5.1706283464        0.6074420355        5.1260101898
 H         5.5004842241       -0.9168752392        5.9870873977
 H         1.4766960429        0.5679921165        8.8265323376
 H         3.1081304545        1.0678357022        9.2452906161
 H        -1.4246983664        4.7916325289        7.9676083066
 H        -0.5055594368        4.8127130883        6.4793321613
 H         2.0358459027        4.1124618658       10.5314790571
 H         1.3400134823        2.4098325650       10.3234391306
 H         0.2524658327        3.6389693255       10.5108078996
 H         2.1293622969        4.7613698616        6.8668188323
 H         1.0198658389        5.5532797493        7.8255956701
 H         2.6456032571        5.2397730751        8.4435360867
 H        -2.7852727677        4.6732041743        6.3691181770
 H        -2.8602750091        3.0519704793        7.2050659529
 H        -4.1758399704        0.2566095951        2.5424792338
 H        -5.1440457715        1.5540417446        2.3509547703
 H        -3.6681158713        0.6272840077        5.2012945497
 H        -5.1608701644        1.7008709922        4.9975387523
 H        -4.2642969379        1.9061202422        6.5182553375
 H        -5.3291369075        3.5093945907        3.7091779907
 H        -4.3513743885        4.5264981531        4.7883157105
 H        -3.7911503562        4.3907974537        2.9992177962
 H        -3.5525644623        2.2964978319        0.3809891874
 H        -2.9739768359        0.7198932235        0.2046701580
 H        -3.2548928715       -2.3258194843       -1.5210281813
 H        -5.0024719369       -2.1055997391       -1.0410603775
 H        -6.9375078931       -0.6326820248       -1.4462721207
 H        -6.8160953072        0.0590340297       -3.0920694000
 H        -7.2950273667        1.0100225056       -1.6311727655
 H        -5.8070918772        2.6448090680       -2.0974050422
 H        -3.9955722490        2.4654393000       -1.9160404250
 H        -4.8450942710        1.6749501828       -3.3970952044
 H        -5.8508014381       -2.7462132490       -2.8248658380
 H        -4.4256644486       -3.7514610491       -2.8907475740
 H        -3.4357916719       -4.9868819785       -7.4868422922
 H        -2.5349482497       -4.8773320851       -6.0489993403
 H        -6.7621576377       -3.4847130862       -5.3332822835
 H        -6.7932823913       -2.2202137273       -6.6432826529
 H        -6.5895896584       -1.7841475965       -5.0044604163
 H        -3.0115839966       -2.7883131521       -6.9325331392
 H        -4.4955145717       -2.5964469407       -7.8846745091
 H        -3.8616400283       -1.3381280275       -6.8446193039
 H        -3.0426280055       -7.2219678754       -5.4294859481
 H        -4.5965110217       -7.0690863460       -6.1226614919
 H        -1.1803550533      -10.7961995795       -9.7869704955
 H        -2.2008995719       -9.3713512414      -10.2847617193
 H        -0.7946460094       -9.2992753490       -9.1907769326
 H        -5.2002455349      -10.0719087357       -6.6689442175
 H        -4.4094706446       -8.9652554388       -5.7626694262
 H        -3.6093308985      -10.3878035582       -6.0475375414
 H        -4.5090655955       -8.7319305710       -9.8586210935
 H        -5.6474342597       -9.6302660216       -8.6955703607
 H        -5.2653978038       -8.0526059297       -8.3905335370
 Na        0.5107474527        1.8364255399        3.6625369830
