155

 C         6.4582393531       -5.0582915247        8.0874029548
 C         5.2964539891       -5.5683436564        7.2316090528
 C         3.8853755227       -5.7761683636        8.0439489912
 C         3.1247301483       -4.4425472562        7.9532537130
 C         2.4291713939       -4.2160508525        6.5302572222
 C         3.1417697008       -6.9912558438        7.4507335484
 C         4.1513390969       -6.1168387462        9.5253511781
 O         5.2674526826       -5.8292311865        6.0630514142
 O         3.3421600769       -3.4730718959        8.6555698182
 C         2.1160051513       -2.7272449347        6.2400374083
 C         3.2898785959       -1.9731364068        5.6492357119
 C         3.0064010455       -0.3668189960        5.5502866020
 C         1.5810485979       -0.0922775152        4.9404866475
 C         1.3240657589       -0.3700649228        3.2636042597
 O         4.2966235423       -2.4677401674        5.2386003542
 O         0.5952846825        0.1936927230        5.5666515393
 C         3.0431964110        0.2832632979        6.9273058400
 C         4.0697406951        0.3321569159        4.6711926372
 C        -0.1761842332       -0.2797704006        2.8807111704
 C        -0.5349955614        0.3950810754        1.5901729675
 C        -0.2658935655        1.9388039543        1.5234441392
 C         0.8095729029        2.1757370243        0.3163278920
 C         1.5984133831        3.4933229364        0.1990274456
 C        -1.3905853929        2.7320434363        0.8821304499
 C         0.2110990709        2.6160147546        2.8295317834
 O        -0.9347448609       -0.2609451593        0.6650169152
 O         0.7632018925        1.4630216828       -0.6950800080
 C         2.9743538059        3.2658974481       -0.3787991571
 C         3.8073481967        2.3414926388        0.5910676872
 C         5.3201703661        1.7991772530        0.2409285228
 C         5.0222376418        0.6725081020       -0.8053987118
 C         4.3640646131       -0.6456017440       -0.2856680161
 O         3.2826988293        1.9936724873        1.6344657183
 O         5.4293339296        0.8437639971       -1.9514784854
 C         6.0477379061        3.0455810351       -0.3655964978
 C         6.1853714240        1.2948146393        1.4576721131
 C         3.9321328015       -1.6671326331       -1.3568712173
 C         2.2825699237       -2.0235473766       -1.2302359161
 C         1.6390409293       -3.3920717249       -1.8881577197
 C         0.4789706670       -2.9836269556       -2.8599101896
 C         0.6325552684       -3.0759124887       -4.3610735958
 C         2.8346407423       -4.2781107824       -2.4206495388
 C         0.8940858495       -4.0975685406       -0.6097024751
 O         1.6389821925       -1.2922911841       -0.5443776569
 O        -0.6134823244       -2.5934987370       -2.4510452608
 C        -0.6128223619       -2.3203451968       -4.9679727689
 C        -0.4570443089       -0.7810126237       -4.6692961480
 C        -1.5770276275        0.2349901351       -5.0483658226
 C        -2.6078388651        0.2741881955       -3.8468819709
 C        -4.0403880882        0.2625249784       -4.1939961861
 O         0.5148553033       -0.3406601559       -4.0756097198
 O        -2.2414197933        0.3195804930       -2.6719309631
 C        -1.1363183207        1.7350754507       -5.1898595176
 C        -2.2841110304       -0.1685518896       -6.3752970364
 C        -5.0046348325        0.1057739002       -2.9884878399
 C        -6.4688217826       -0.3137673258       -3.4310898737
 C        -7.7843252382        0.1485526492       -2.6730174216
 C        -7.7287597387        1.6320617594       -2.7262513989
 C        -7.6148031403        2.3086680487       -4.1488884667
 C        -9.1451270570       -0.4074112774       -3.2673515024
 C        -7.6920073846       -0.3053213784       -1.1603254348
 O        -6.7001956323       -0.9908384882       -4.3800737051
 O        -7.7424872269        2.3374463212       -1.7174373902
 C        -7.3925834271        3.8891631953       -4.0153053188
 C        -6.0256585477        4.2358575585       -4.6039954695
 C        -5.7606996100        5.7044849133       -5.1718651823
 C        -6.7856521318        5.9285076781       -6.4191767818
 C        -6.1087291639        6.1844240317       -7.7863834972
 O        -5.1989359072        3.3902575907       -4.5185702603
 O        -7.9324282410        5.8827064556       -6.0547770718
 C        -6.0506025783        6.8630020372       -4.1918095283
 C        -4.3510974268        5.6964582643       -5.6684864639
 H         6.0768168833       -4.3280071253        8.8036861979
 H         6.9939705132       -5.8629886636        8.6907189427
 H         7.2249669026       -4.6235923328        7.3515840192
 H         3.0020873162       -4.7474350569        5.7395441754
 H         1.4954805920       -4.8104643755        6.5229951430
 H         2.7115530919       -6.8577442738        6.4617178899
 H         2.3239506864       -7.2707556947        8.1496477769
 H         3.7368269733       -7.9468896240        7.4455605574
 H         4.3010238130       -5.1699811527       10.2200553502
 H         3.2936830248       -6.5261719248       10.0188262185
 H         5.0103558912       -6.8371424671        9.5602967326
 H         1.3472582693       -2.7694801225        5.4329200912
 H         1.4847316021       -2.4049057521        7.0956784384
 H         1.9851825383        0.2384992164        2.6514149021
 H         1.6170427373       -1.4144729289        3.2030531045
 H         3.0811310212        1.3313933270        6.7627583296
 H         3.9869578793        0.2164559850        7.4386792854
 H         2.3397068253       -0.1330600504        7.6799272314
 H         5.0205334568        0.0541487933        5.0493337621
 H         4.0695861573        0.0994873780        3.6133094930
 H         4.0865758793        1.3974060916        4.7131513743
 H        -0.6973084092        0.3097021784        3.6735562866
 H        -0.6242877556       -1.2194032658        3.0078714324
 H         1.0817089875        4.2150736333       -0.4884657291
 H         1.6806361569        4.0342907617        1.0796206807
 H        -1.4121699719        2.4844035509       -0.1579807190
 H        -1.0552138079        3.8570129613        0.8804098805
 H        -2.3443711515        2.6692864999        1.4515315055
 H        -0.5366994996        2.5076709841        3.5890177872
 H         1.1195775943        2.1414790870        3.2535122022
 H         0.5279253690        3.6214090147        2.7325660615
 H         2.9636543504        2.6962942005       -1.3318097767
 H         3.5746771692        4.1719178800       -0.4453766009
 H         5.0434928805       -1.0859848811        0.4565857448
 H         3.5047707342       -0.3460449963        0.3402871163
 H         6.9767773969        3.2842427101        0.2189424063
 H         5.4968213467        3.9712374701       -0.4542929246
 H         6.3025386117        2.6982108319       -1.4094582093
 H         6.3469544193        2.0428175834        2.2258252009
 H         5.6540170661        0.4787230406        1.9496545576
 H         7.1320227607        0.9331892328        1.0944016652
 H         4.4690209086       -2.5693820564       -1.2442096390
 H         4.0915118507       -1.1632946967       -2.3814291953
 H         1.5603057187       -2.5196325795       -4.5445065770
 H         0.8487898284       -4.0521691096       -4.8225535964
 H         3.4494550904       -3.6737012713       -3.1472875858
 H         2.3379627672       -5.0851269081       -2.9798393999
 H         3.3736375190       -4.7279386565       -1.6300957936
 H         0.6364018568       -5.0564011677       -1.0316341552
 H         1.5968718424       -4.2223955041        0.2630972887
 H         0.0814715709       -3.4388043339       -0.3969080148
 H        -0.7595980163       -2.4450631032       -6.0291597988
 H        -1.5914640222       -2.5955077274       -4.5188615469
 H        -4.2698670131        1.3399256116       -4.5755366960
 H        -4.4063910180       -0.4665739688       -4.9977191918
 H        -0.5833301987        1.8523240221       -6.1436188957
 H        -0.4707545854        1.8798890833       -4.3737825203
 H        -1.9114233743        2.5332157750       -5.1125204710
 H        -3.2990740691        0.4623225846       -6.4746079043
 H        -1.6158695674        0.1648074174       -7.1717993416
 H        -2.6185870684       -1.1701747081       -6.5456805206
 H        -4.9980015878        1.1349533784       -2.5351175918
 H        -4.5459754738       -0.4686009038       -2.2550273372
 H        -6.7691377096        1.8618486800       -4.7129866395
 H        -8.5739795144        2.1533125375       -4.6308071892
 H        -9.3320940532       -1.5460420027       -3.2554737606
 H        -9.0796966883       -0.1160001723       -4.3163502061
 H       -10.0520345386       -0.0570208556       -2.8554911875
 H        -6.9430080264        0.2167707230       -0.4434589572
 H        -8.6430460667        0.0259354129       -0.7519586028
 H        -7.5499081233       -1.3931128759       -1.1942692653
 H        -8.2119757498        4.4254815526       -4.5841053924
 H        -7.3725748655        4.0995492879       -2.9271241851
 H        -5.3109779019        5.4819391379       -8.0161224100
 H        -6.7359100925        6.2736924793       -8.6214006635
 H        -5.5973481641        7.1352559213       -7.7425743879
 H        -5.1625879104        7.0650153679       -3.5396694848
 H        -6.9143443144        6.7223469528       -3.5114022026
 H        -6.1566948326        7.7838931921       -4.8416353969
 H        -4.0870848462        6.7291297692       -5.9029510826
 H        -3.7315193098        5.1876787775       -4.8838185326
 H        -4.0368825725        5.1868528197       -6.5523366458
 Na       -0.3360010307       -0.3837417402       -1.5888627355
