155

 C         5.5910542259        4.2193978861       -7.6899890767
 C         4.8603491323        4.0300167346       -6.3286318110
 C         4.8759496657        2.4855025709       -5.9693816968
 C         3.8661096816        2.3734847616       -4.7044417853
 C         4.2438723408        2.9987807699       -3.2708269703
 C         4.3118141555        1.5681126966       -7.0417871657
 C         6.2501773106        2.0769854339       -5.4819632057
 O         4.3748774878        4.9732249830       -5.7374634363
 O         2.8904264300        1.7130889954       -4.8093823314
 C         3.2895488899        2.4273309006       -2.0098136115
 C         2.7748754138        3.5159196415       -1.0206558663
 C         3.4647260632        3.5596707857        0.3766037816
 C         2.8677252913        2.7156999615        1.4210790272
 C         2.9738111610        1.1548279113        1.0917387165
 O         1.9853159557        4.4030238866       -1.3984750860
 O         2.2815386141        3.1729422336        2.4260474573
 C         4.9586808670        3.2551960894        0.2344196720
 C         3.4097692872        5.0844506969        0.9315942599
 C         3.3145167472        0.1265548571        2.2994425122
 C         2.1372303290       -0.6821449173        2.7755148528
 C         2.2645098685       -1.3061259272        4.1366499513
 C         2.4028465322       -0.1427154805        5.2421450717
 C         3.1364559282       -0.0865193644        6.5332010369
 C         0.7920861428       -1.8577931881        4.4984316142
 C         3.2301867594       -2.4791718309        4.0890358362
 O         1.0977786150       -0.7482116866        2.1373469382
 O         1.7812702683        0.8967846919        4.9788078371
 C         2.5910295202        0.6411870535        7.7011882905
 C         3.0450538155        2.0987291911        7.7864661886
 C         2.2183273802        2.9532950267        8.9073678888
 C         0.7921096058        3.0218907459        8.2547878929
 C         0.4049664991        4.1500255860        7.2895384212
 O         4.0007477128        2.5540269027        7.1749454064
 O         0.0364360501        2.0366573544        8.3227723744
 C         2.1999582377        1.8777474118       10.1615565106
 C         3.0000852188        4.2190568624        9.1640537242
 C        -0.9606244303        4.1560971753        6.7614008007
 C        -1.0417383748        3.3915251199        5.3210090807
 C        -2.5503483498        3.0719471293        4.6253928335
 C        -2.5053688810        1.9145318258        3.5743547881
 C        -3.7283746514        1.7180499326        2.7275031733
 C        -3.5096924815        2.4529912146        5.6406154265
 C        -2.8733066352        4.4593666280        3.9800246213
 O         0.0581861616        3.3213515592        4.7665649392
 O        -1.6107224669        1.0991113137        3.4857984428
 C        -3.4397047728        1.1221168469        1.3024415776
 C        -4.6717656183        0.4534523511        0.4506997083
 C        -4.6241401177        0.6401743539       -1.0629218002
 C        -4.1612974385       -0.9037923625       -1.4948399690
 C        -5.0662124941       -2.1218133209       -1.5078214170
 O        -5.5281535315       -0.3349044717        0.8526253080
 O        -3.0138058958       -1.0673146534       -1.8049474206
 C        -5.9663784566        1.0079503381       -1.4847925717
 C        -3.5373560852        1.6769006315       -1.6900500220
 C        -5.7813806038       -2.3337332454       -2.8856916588
 C        -4.9064722926       -1.6787512277       -4.1070580009
 C        -4.5877766408       -2.6611368700       -5.3885234331
 C        -3.8261243822       -3.9527527051       -4.9074953530
 C        -3.4526765431       -4.8221678591       -6.0298897407
 C        -6.0175731767       -2.6609438123       -6.1114415869
 C        -3.5221590342       -1.9260340774       -6.2290600192
 O        -4.5130390900       -0.5488240556       -4.0812639043
 O        -3.7114844195       -4.1946625638       -3.6891207305
 C        -3.9841623978       -6.2971486921       -5.9145667010
 C        -3.4696964895       -7.2713979489       -7.0239399200
 C        -4.0478631554       -8.7705907764       -7.2264503825
 C        -2.5347366296       -9.7279346932       -7.4905264377
 C        -1.3673079969       -9.1274681643       -8.3758248244
 O        -2.6472119839       -6.8278224579       -7.8830904882
 O        -2.5122333371      -10.7654665260       -6.8425901748
 C        -4.5281950232       -9.4115307611       -5.9331993925
 C        -4.9529691730       -8.5839944242       -8.4617534178
 H         5.8423389242        5.2155721400       -7.9080107939
 H         6.5139639805        3.7706462404       -7.5986200690
 H         5.0302905079        3.8625052505       -8.5265827392
 H         5.3566584948        2.8919540578       -2.9497343720
 H         4.1258701390        4.1160495662       -3.3502353517
 H         3.2844991385        1.5864223477       -7.1757517177
 H         4.7048940862        0.5625639133       -6.7966694066
 H         4.8018900195        1.7401570739       -7.9613015202
 H         6.2651497317        1.0473017003       -5.0157221150
 H         7.1347024336        2.1661035468       -6.2171263897
 H         6.5842781839        2.8771284180       -4.8430663472
 H         2.4363280438        2.0526983743       -2.6063374706
 H         3.9524375296        1.6385295768       -1.6186793754
 H         2.1168719912        0.7641408370        0.6226225557
 H         3.7694339131        1.0142916854        0.3595879791
 H         5.5379644489        3.4974424193        1.1628089026
 H         5.3704375050        3.9223734025       -0.5397253367
 H         5.1032224457        2.3347602390       -0.2417093349
 H         3.9244345607        5.1461151801        1.8701135453
 H         4.1032723070        5.7196112302        0.3388778179
 H         2.4039139528        5.4519725360        0.7573508834
 H         3.8145766088        0.5817846664        3.1413468353
 H         3.9401857996       -0.5761381123        1.8330008773
 H         3.5873963370       -1.1014588833        6.7546016775
 H         4.0029140902        0.4337372147        6.1248891513
 H         0.7447776165       -2.0988228581        5.4917320691
 H         0.6229498190       -2.7202953463        3.8823097053
 H         0.1578533543       -1.0431362157        4.1486234266
 H         2.6101413349       -3.2272763273        3.6194372160
 H         4.2098160943       -2.4175339122        3.5336521322
 H         3.3210932181       -2.9093047333        5.0312823610
 H         1.4961090723        0.6891807549        7.7437731588
 H         3.0042405679        0.3103495351        8.5888094160
 H         0.6015767393        5.0597548827        7.8517993573
 H         1.1764925291        4.0850327394        6.4788752830
 H         3.2161870258        1.8950205629       10.4135403603
 H         1.9845501314        0.8038915251        9.8873762224
 H         1.4917094744        2.2007297234       10.8279340496
 H         2.7950850250        4.8877302276        8.3467099668
 H         2.6657300591        4.7210834375       10.0373676263
 H         4.0760496574        4.0619309591        9.1284664256
 H        -1.2574434828        5.1596621350        6.4084043944
 H        -1.6795760782        3.9115296438        7.5085305274
 H        -4.2665504346        0.9603446543        3.2528187764
 H        -4.2731900423        2.7179872659        2.6432382477
 H        -2.9496612143        1.6400248113        6.0615408522
 H        -4.4113503675        2.1645202640        5.3421616297
 H        -3.7157435328        3.2794754011        6.3047331711
 H        -2.6083206913        5.2075848562        4.6766942655
 H        -2.2287291262        4.5027586669        3.0898391617
 H        -3.8410663865        4.4269128768        3.6565570813
 H        -3.1968584718        1.8354268850        0.5270474254
 H        -2.7199170691        0.3622866017        1.3693057426
 H        -4.3495793985       -2.8955466772       -1.2787775743
 H        -5.8094828926       -2.2455410620       -0.6994704799
 H        -6.6842134622        0.6210845917       -0.8887727206
 H        -6.2473556534        0.8183314340       -2.4808227586
 H        -6.1151245232        2.0972433507       -1.4989586702
 H        -3.5455343850        2.6590917948       -1.3356110440
 H        -2.5838227266        1.1699840098       -1.6731930162
 H        -3.7957858037        1.8333350483       -2.7359693417
 H        -6.7842886334       -1.8741157904       -2.8590253626
 H        -6.0246690091       -3.4198182015       -3.1645276566
 H        -3.8301872603       -4.4204553508       -6.9617286541
 H        -2.3499612858       -4.8907426474       -6.1016943746
 H        -6.8834305897       -2.9437708335       -5.5016106835
 H        -6.0467960771       -3.2996048713       -7.0224453928
 H        -6.1236932416       -1.6704949876       -6.5375392416
 H        -2.8445135529       -1.2934064437       -5.6526085971
 H        -2.8348469149       -2.7643851818       -6.5916814249
 H        -3.9580594428       -1.4205890320       -7.1171575954
 H        -3.7335398851       -6.8153974923       -5.0197435613
 H        -5.0351559495       -6.3664741046       -6.0393220038
 H        -1.5989299256       -8.4032992211       -9.1452207520
 H        -0.7752949903       -8.5179996540       -7.6230954543
 H        -0.7319278088       -9.9247635382       -8.6536781788
 H        -3.8076052318      -10.0546925855       -5.4302597954
 H        -5.3737833060      -10.0063032465       -6.2498048727
 H        -4.9617047964       -8.6271861942       -5.2882861050
 H        -5.5984301949       -7.7929574448       -8.4072150394
 H        -4.2421897006       -8.2034552273       -9.1528908244
 H        -5.4054660789       -9.4743955236       -8.7799139910
 Na        0.7436022497        1.6639569508        3.0796082029
