155

 C         5.3777632151        4.3856705551       -7.1627830378
 C         3.8118336848        3.9002370470       -6.9215663977
 C         3.4940873692        2.4489112103       -6.7281310479
 C         2.7720024725        2.1918250806       -5.3359552828
 C         3.3918335417        2.8412376125       -4.0372220041
 C         2.8391457676        2.0838702945       -8.1112615829
 C         4.8222037328        1.5661637047       -6.5473885267
 O         2.9225175138        4.7018562643       -7.1418807045
 O         1.8689456179        1.4114575866       -5.2233731381
 C         2.8697406209        2.3926511663       -2.6959598946
 C         2.9757337192        3.6075635556       -1.5940005978
 C         3.6461903290        3.3954103610       -0.1333846853
 C         3.1386451953        2.2015112656        0.8119823205
 C         3.8505959456        0.9043610635        0.8361358285
 O         2.8194453035        4.7289603789       -1.9738373348
 O         2.3031428120        2.5370086818        1.6762408797
 C         5.1196176262        3.0504175740       -0.5335622879
 C         3.6582863342        4.7201987969        0.7177369994
 C         3.6024402541        0.0451757976        2.1959936456
 C         2.0876869229       -0.4306112689        2.4089629084
 C         1.7752999146       -1.3507755619        3.7324376110
 C         2.2373829372       -0.5433075341        5.0740982613
 C         2.9270249358       -1.2829870164        6.2267011974
 C         0.2945626258       -1.8498644103        3.9555760593
 C         2.6530138541       -2.7040482433        3.7102769196
 O         1.2731188372       -0.2300838452        1.5332950630
 O         2.0270529125        0.6477285276        5.2117339877
 C         2.7276988320       -0.4797779505        7.5127082343
 C         3.5017245932        0.8493972526        7.6026134251
 C         2.8681511377        2.0367435408        8.5066534247
 C         1.3657206303        2.2802324409        8.1519667476
 C         1.0063451172        3.4885923280        7.1578314377
 O         4.5333042644        1.0469896950        6.9923749273
 O         0.4859895285        1.6330748498        8.6880617850
 C         2.9123707976        1.7626274815       10.0435224945
 C         3.6617612829        3.2992821509        8.2871827400
 C        -0.4391619184        3.3046750672        6.7028777802
 C        -0.7688155620        3.8376418163        5.3446997628
 C        -2.1907788571        3.6832717671        4.7137186896
 C        -2.2712834114        2.3325527289        3.9210553334
 C        -3.5296653373        1.5417531810        3.4452051305
 C        -3.2782703770        3.7494193601        5.7304109495
 C        -2.3724706134        4.9157171999        3.6294415378
 O         0.0808277246        4.4697738128        4.7522439558
 O        -1.2737902340        1.9576068173        3.3154320300
 C        -3.2956321256        0.9732649501        2.0121918491
 C        -4.4703690944        0.8572002343        1.0733340888
 C        -4.3709876522        0.4744468766       -0.3138302959
 C        -4.2131647137       -1.1174939336       -0.4370695320
 C        -4.7505702597       -2.1293876663       -1.5642068126
 O        -5.5686961564        1.1354387683        1.5533521717
 O        -3.6072410844       -1.6669804905        0.4801221724
 C        -5.5915736451        0.8998089113       -1.1598385842
 C        -3.0434051832        1.0319339509       -0.9873018791
 C        -5.6484598288       -1.7172480427       -2.7591661380
 C        -4.6860086701       -1.3147497616       -3.9465523417
 C        -4.6576933882       -2.2218890189       -5.2249387610
 C        -3.8273083964       -3.5856012094       -4.7499429104
 C        -3.1759700978       -4.5586478425       -5.7604274465
 C        -5.9891882754       -2.8130583737       -5.7592711547
 C        -3.8360057556       -1.5038758653       -6.2391563331
 O        -3.9838143300       -0.3302842577       -3.9157849253
 O        -3.9197487302       -3.9328533103       -3.5552865913
 C        -3.0701561859       -6.0505590415       -5.3434308117
 C        -3.3115522265       -6.7930943599       -6.6193188707
 C        -4.1045721043       -8.0749342003       -6.6114466027
 C        -3.0695140767       -9.3169544393       -6.5755607075
 C        -1.9049927752       -9.4535099580       -7.5697664747
 O        -2.7220636183       -6.4687470882       -7.6667798198
 O        -2.9861385652      -10.0927709466       -5.6650183037
 C        -4.9962821418       -8.1124125562       -5.5270751618
 C        -4.8288318883       -8.3399048606       -8.0557808927
 H         5.4242022272        5.4179619760       -7.3795530979
 H         6.0627483335        4.2456208039       -6.3804445507
 H         5.8712845789        3.8445900457       -7.8751664062
 H         4.5115935731        2.6730323647       -4.1517377605
 H         3.2314082201        3.8972808518       -4.0809527521
 H         2.2280611798        2.7933246161       -8.5407674276
 H         2.1405024484        1.2563225730       -7.9810199478
 H         3.6179713677        1.8580319987       -8.8273231296
 H         4.6139668127        0.5204888945       -6.1737307779
 H         5.2327808720        1.3239868380       -7.5879189988
 H         5.5860309459        1.7405040616       -5.8123660065
 H         1.8587577726        2.0178824612       -2.5965141162
 H         3.3484354049        1.5271641888       -2.2094319747
 H         3.4175529526        0.1620618289        0.1435700766
 H         4.8541461429        0.8830854393        0.6818583412
 H         5.8567827645        3.0197448622        0.3373936213
 H         5.4800639965        3.7815066938       -1.3585571201
 H         5.1542171148        2.0512958440       -0.9756207248
 H         3.7467507322        4.4022487833        1.7723088680
 H         4.4753065511        5.4422412363        0.3966904624
 H         2.6303984872        5.0816747860        0.8854008932
 H         4.2425840931        0.2480645038        2.9926688130
 H         3.9768797910       -0.9324640465        1.8228995671
 H         2.6053169789       -2.2770133100        6.3907273388
 H         4.0655706742       -1.4927277601        6.0490165647
 H         0.1965857556       -2.0623145458        4.9509612107
 H         0.2077983891       -2.7205841872        3.3506009927
 H        -0.3288301482       -1.0037898766        3.6550150277
 H         2.4709514201       -3.2213010283        2.8108178795
 H         3.6654281590       -2.3462426049        3.6504480297
 H         2.5264681823       -3.1856132645        4.6074097700
 H         1.6854812788       -0.2142906518        7.5793472517
 H         2.9964596109       -0.9790570503        8.4380779994
 H         1.0730445520        4.3256598691        7.9320703696
 H         1.7940238300        3.5856968260        6.4547138246
 H         3.8589993815        1.3878769848       10.4260423991
 H         2.0723363331        1.0379062121       10.0983637817
 H         2.8190055027        2.6556231571       10.5801982377
 H         3.3853236040        3.8221312136        7.4017268124
 H         3.6258614068        3.9240497218        9.1066528767
 H         4.7229611254        3.0932493666        8.1443965473
 H        -1.1693468799        3.5860023674        7.4270776844
 H        -0.6423866554        2.2494270187        6.4701306819
 H        -3.7876409989        0.7395902650        4.0155802402
 H        -4.2764598838        2.2836871379        3.4174614866
 H        -3.1123947765        2.9040907913        6.5348363190
 H        -4.2555585521        3.5851660070        5.2795292548
 H        -3.2675503330        4.6500264927        6.5147435102
 H        -1.8582869575        5.8152417177        3.9139038646
 H        -2.0162730908        4.5748344503        2.5805919259
 H        -3.4267133500        5.1860394949        3.5767504527
 H        -2.4675340848        1.5992791957        1.7096781135
 H        -2.8344677971       -0.1013382533        1.9819348790
 H        -3.8666503729       -2.6118951470       -2.0724907470
 H        -5.3474558101       -2.7962809365       -0.8828128473
 H        -6.5320044913        0.5763948918       -0.7995534026
 H        -5.3956290651        0.4634066347       -2.1488793404
 H        -5.7051743738        1.9992605691       -1.3733750617
 H        -2.9664248866        2.0426317973       -0.9056789128
 H        -2.0912307994        0.6200842890       -0.6642159627
 H        -3.1822802877        0.7767466526       -2.0211739408
 H        -6.3331707917       -0.8120440258       -2.5745218002
 H        -6.3456514565       -2.5293630764       -2.9889127132
 H        -3.7199142315       -4.4557762045       -6.6913321785
 H        -2.1495126626       -4.1898910568       -5.9917583680
 H        -6.8250427398       -2.8128523614       -5.1232409513
 H        -5.9194766459       -3.7896226017       -6.1638741133
 H        -6.2553711592       -2.1509420160       -6.5558166409
 H        -2.8191569398       -1.3689179997       -6.0703787853
 H        -3.9847373617       -2.0653659451       -7.1756383969
 H        -4.2662861491       -0.5239074087       -6.3726476477
 H        -2.1492192969       -6.2800232968       -4.8442997287
 H        -3.8393517459       -6.2209752396       -4.6543763750
 H        -0.9583520879       -9.2821520412       -7.2152950578
 H        -2.1242660957      -10.5026468286       -7.9331175868
 H        -2.0475040542       -8.8383915968       -8.3616426607
 H        -4.3942141267       -7.9276636104       -4.6476466509
 H        -5.4583207533       -9.0724600666       -5.3637931802
 H        -5.7675000964       -7.3587648749       -5.5168418341
 H        -5.7931010055       -8.0250057404       -8.1485188850
 H        -4.1906927610       -7.8085027562       -8.7670877131
 H        -4.7145680237       -9.3699692932       -8.2509962593
 Na        1.2161693856        2.0553835289        3.4435032482
