155

 C         5.2254539540        4.4334741351       -7.1598473746
 C         3.7660809211        4.0693632033       -7.1479338785
 C         3.2788180387        2.3980025294       -6.7092587847
 C         2.6147995360        2.1164926715       -5.3864658136
 C         2.9155923823        2.9801274780       -4.1526068477
 C         2.2413078711        1.9555826037       -7.8304953214
 C         4.6146058328        1.4957538046       -6.6966710209
 O         2.8787101612        4.8598455582       -7.3915878543
 O         1.8739737922        1.1668365057       -5.3218934054
 C         2.6278849554        2.3452687103       -2.6661840897
 C         3.0630244067        3.4707735679       -1.6222731017
 C         3.8761818861        3.3164103828       -0.2839889022
 C         3.3225428858        2.3254814177        0.8362568694
 C         3.6411882734        0.8106122549        0.8639787605
 O         2.7760106541        4.6165008705       -1.9186756773
 O         2.6084245768        2.8036810672        1.6849940022
 C         5.4322524781        2.9558121144       -0.6652607763
 C         3.9215432212        4.7261613556        0.3278086627
 C         3.4641523569        0.0428780692        2.1453564067
 C         2.1209383885       -0.5295388338        2.2425532242
 C         2.0044130332       -1.4907097341        3.5772306832
 C         2.2392596972       -0.6110853752        4.9186658217
 C         2.7951014237       -1.2316088422        6.1841801348
 C         0.4176233835       -1.7252926838        3.8420465296
 C         2.8112146394       -2.7848385849        3.3213513802
 O         0.9934530980       -0.3363866124        1.7049868847
 O         1.6596722251        0.4959006513        5.0585048961
 C         2.5690528067       -0.4776354279        7.6096889414
 C         3.4072448083        0.8293839417        7.5836886980
 C         2.9528111890        1.9536907825        8.4578419866
 C         1.4681081879        2.1800307622        8.0820839422
 C         1.0322948282        3.2443023760        6.9892161736
 O         4.3890345734        0.8751119927        6.8860916303
 O         0.6661273395        1.5178177471        8.6757578697
 C         3.1931222734        1.4087544634        9.8494172438
 C         3.9108364546        3.2498050755        8.1667754754
 C        -0.4013862871        2.9661483137        6.5365421272
 C        -0.6434128320        3.8204418801        5.2111475428
 C        -1.9957033988        3.7835105787        4.6463757549
 C        -1.9902326765        2.4909895768        3.7181346169
 C        -3.3354893764        1.8772868128        3.4162134753
 C        -3.2387496914        3.7256262804        5.7118011112
 C        -2.2339485548        4.9834592840        3.6802889056
 O         0.3825621262        4.2573340883        4.6716913258
 O        -0.9709544643        2.1069982575        3.1366028102
 C        -3.3255891252        0.9895672600        2.0480296806
 C        -4.6234036287        1.0882500646        1.2877013542
 C        -4.4700784826        0.5492848660       -0.0951861482
 C        -4.3285709399       -1.0926219506       -0.1555380371
 C        -4.6897949181       -2.1784053543       -1.2639583399
 O        -5.6882432978        1.5118622371        1.7123640976
 O        -3.6885240737       -1.6049313586        0.7070876974
 C        -5.4810975991        1.2033291801       -1.0915436390
 C        -3.0411606900        0.7687473031       -0.7804912015
 C        -5.4533543800       -1.9340225845       -2.5676238222
 C        -4.6161732778       -1.3651773729       -3.6724966110
 C        -4.6004238677       -2.1473863601       -5.0590259299
 C        -3.8107207812       -3.5132027985       -4.6436339262
 C        -2.9823835641       -4.3820534102       -5.7713782726
 C        -6.0587989300       -2.3043050397       -5.6787281461
 C        -3.7325035821       -1.3858991243       -6.2037392494
 O        -4.1218108433       -0.2500937871       -3.6101376059
 O        -3.8907235890       -3.8911036408       -3.5455747010
 C        -2.9174722527       -5.9038633562       -5.4453846117
 C        -3.2816220454       -6.7664134138       -6.7272642076
 C        -4.0816078806       -8.1443369504       -6.7222406111
 C        -3.0640682633       -9.2909684041       -6.2973672617
 C        -2.1112632832       -9.7118480891       -7.3724203366
 O        -2.7518135228       -6.5186947560       -7.7523177583
 O        -2.9121561553       -9.8538211062       -5.1993106358
 C        -5.2179420674       -8.4656952640       -5.5686061113
 C        -4.8880411715       -8.2235290717       -8.0832988840
 H         5.3700800031        5.5416840886       -7.0249834010
 H         5.8284539601        3.9478316740       -6.3670206010
 H         5.8365167695        3.8966025069       -8.0134175690
 H         3.8865041459        3.3017639099       -4.2796680399
 H         2.2980866747        3.8916930389       -4.2134539439
 H         1.3696618739        2.6551243077       -7.8132231182
 H         1.7915609297        1.0007416021       -7.7538906799
 H         2.6340641423        2.1888755368       -8.8282210422
 H         4.6801513521        0.5392616848       -7.1498801483
 H         5.4552178035        1.9965202060       -7.0517042801
 H         4.7645320725        1.1384079178       -5.6403608241
 H         1.5949532705        2.1113577849       -2.3595034746
 H         3.1997411814        1.4821603692       -2.2689032850
 H         2.9839015357        0.3608812866        0.1368790906
 H         4.7044207848        0.4715626244        0.5844977111
 H         5.9423353542        2.9244667038        0.2482695667
 H         5.9153379409        3.7160812824       -1.2246267721
 H         5.5801600649        2.0979455193       -1.3672660373
 H         4.5851982263        4.9329991803        1.1035029550
 H         4.1613003333        5.3893591930       -0.4212520852
 H         2.9624374527        4.8338886729        0.7622394294
 H         3.5613810759        0.9157959056        2.9236156086
 H         4.2274148069       -0.6146358866        2.5666802383
 H         2.3313760228       -2.2917469867        6.3473584853
 H         3.7970547951       -1.5171337243        6.2559087516
 H         0.3792922722       -2.4671601735        4.6794097331
 H        -0.0444102782       -2.1872185947        2.9546303028
 H         0.0250901811       -0.7723636469        4.1105875037
 H         2.4092361034       -3.2520821009        2.3729889302
 H         3.8344387135       -2.4774525449        2.9753097478
 H         2.8286362392       -3.2983541019        4.3487752799
 H         1.5145246569       -0.1484046833        7.7597642956
 H         2.8391930166       -1.1452401298        8.4725016976
 H         1.0040984845        4.1851444307        7.4366554155
 H         1.8571842013        3.3279652178        6.2163639734
 H         4.0594922598        0.7258596877        9.8332645561
 H         2.3442752257        0.8032351762       10.0595815775
 H         3.4484577731        2.2775482963       10.5531380883
 H         4.5901360900        3.0825734020        7.3024546457
 H         3.3082461062        4.2106779121        8.0593459840
 H         4.6383295626        3.5037777886        8.9293498640
 H        -1.0335799845        3.5686957083        7.2331867233
 H        -0.7761001573        1.9358364285        6.3389611817
 H        -3.6365035680        1.0653178457        4.2431337663
 H        -4.1827333271        2.6561759315        3.3005201020
 H        -3.2307532918        2.8146112581        6.3066896621
 H        -4.1728952877        3.7610591172        5.1981495454
 H        -3.2091543879        4.4861705631        6.4479252362
 H        -1.9518573683        5.9799273855        4.2429905962
 H        -1.5871808023        4.9246536611        2.8038912881
 H        -3.2584074234        5.0762336661        3.3852910600
 H        -2.3771228844        1.0546028770        1.5164223572
 H        -3.2651220056        0.0119529021        2.4621776502
 H        -3.8076648820       -2.7798731428       -1.4709106088
 H        -5.4360850453       -2.6818874409       -0.6400973864
 H        -6.6230842480        0.8426361413       -1.1893083370
 H        -4.9934531240        1.3270919539       -2.0840188946
 H        -5.5947926266        2.2670538714       -0.8785040115
 H        -2.6286032106        1.8188564936       -0.7203220605
 H        -2.3013845724        0.1416806197       -0.2275675645
 H        -2.9998136706        0.4321753228       -1.8100276210
 H        -6.2101972371       -1.2252290621       -2.3448897452
 H        -6.0226222943       -2.8352785674       -2.8673649891
 H        -3.4317219739       -4.1852363012       -6.7772663530
 H        -1.9694158765       -4.0482251629       -5.9338233178
 H        -6.7000245048       -3.0569004813       -5.1611695765
 H        -5.9686071319       -2.7220482449       -6.7163812503
 H        -6.5839076235       -1.3259246900       -5.7525728714
 H        -2.9595047335       -0.6688178548       -5.7038150181
 H        -3.2565582330       -2.0143296000       -6.9701791678
 H        -4.4155514173       -0.6481964267       -6.6966384282
 H        -1.7964618417       -6.1087333928       -5.3188052226
 H        -3.4170185486       -6.1608762019       -4.4402958369
 H        -1.2809114617       -9.0821846536       -6.9083722280
 H        -1.8636411637      -10.7118299672       -7.3414993466
 H        -2.2205945978       -9.3596543031       -8.4710877697
 H        -4.7875331125       -8.3194172540       -4.5322846160
 H        -5.4559358360       -9.5506539265       -5.7567957183
 H        -6.2112285342       -7.9219189269       -5.4764425278
 H        -5.9740356507       -7.8074917381       -7.8338296021
 H        -4.4633050837       -7.5893485777       -8.8368603356
 H        -5.0030520687       -9.2921760630       -8.3093359909
 Na        0.9857912271        2.0825764002        3.5543214040
