155

 C         4.9910558604        4.3232497142       -6.9307293469
 C         3.4310475110        3.9492529412       -6.9503534643
 C         3.1297940163        2.3209046009       -6.7030931717
 C         2.4703020590        2.0858997285       -5.3525901262
 C         2.6126933477        3.1998607052       -4.1494281003
 C         2.0104232319        1.9951633024       -7.7140879745
 C         4.2724573494        1.3728184945       -7.0465676101
 O         2.5996136064        4.6770525989       -7.3647885685
 O         1.8659967584        1.0785837893       -5.0589896346
 C         2.9422127660        2.5141252916       -2.8530381557
 C         3.0284158703        3.5485789770       -1.7169176391
 C         4.0718927242        3.2886890541       -0.4460655976
 C         3.3115698572        2.4068417872        0.7032571135
 C         3.3786520566        0.9010467624        0.5701506361
 O         2.4346280820        4.5720005962       -1.8426322460
 O         2.7771115059        3.0310717631        1.6511889734
 C         5.3635486249        2.6124238992       -0.8716016349
 C         4.3228576591        4.7156061406        0.1961681341
 C         3.4852585245        0.2988779143        2.0365839573
 C         1.9674426400       -0.4523541656        2.4171326161
 C         1.7233564259       -1.4732337210        3.5617114046
 C         1.9887072996       -0.7942341253        4.9423026682
 C         2.6941625771       -1.4620511933        6.0593457080
 C         0.2593117710       -2.2758505627        3.4410687489
 C         2.8358696080       -2.5859221564        3.5191112796
 O         1.0303374364       -0.1008174208        1.7138802707
 O         1.9038279752        0.4262178844        5.0321412457
 C         2.5970117409       -0.6181946132        7.3200490731
 C         3.4749384666        0.6309695891        7.3174252434
 C         3.1189192235        1.7618985715        8.3613989254
 C         1.5622468290        2.0890204358        8.2020539841
 C         1.2710169814        2.9799286745        7.0049376711
 O         4.3341562790        0.7591582690        6.4752530332
 O         0.6913917190        1.4156403183        8.7825058622
 C         3.4185006958        1.2514276457        9.9048370181
 C         4.0482705361        2.9850830115        8.1486527830
 C        -0.1133263653        2.9734978231        6.5166984143
 C        -0.3581170258        3.6084749726        5.1155047604
 C        -1.8895739292        3.9055018360        4.5682333607
 C        -2.1079480766        2.6282209326        3.4303013267
 C        -3.5092197729        2.1185902525        3.2765429748
 C        -2.9650961687        3.7870792120        5.6693116715
 C        -2.0856321633        5.2214507073        3.7567378666
 O         0.5290842500        3.9756785922        4.4400279392
 O        -1.1698433487        2.1753332543        2.8655180485
 C        -3.5043906370        0.8451758989        2.4404059225
 C        -4.4772311992        1.0733667009        1.2690634217
 C        -4.3112838083        0.4798601385       -0.1694687753
 C        -4.3639005447       -1.0965154625       -0.0131737824
 C        -4.8924577794       -2.1471576680       -0.9628720093
 O        -5.4559132817        1.7649052033        1.4735407948
 O        -4.1413268045       -1.4539775962        1.1560585616
 C        -5.5234959156        1.0027699988       -0.9993535447
 C        -3.0408349849        1.0132950937       -0.7784952443
 C        -5.4608850513       -1.7749347259       -2.3518957515
 C        -4.5512759608       -1.3112349634       -3.4649108323
 C        -4.3055196793       -2.0933791503       -4.7711899358
 C        -3.7195241031       -3.5010657973       -4.6909953216
 C        -3.2477548070       -4.3122545128       -5.8794275465
 C        -5.8854275230       -2.3100969615       -5.3589663011
 C        -3.4778989672       -1.1030981655       -5.7728609056
 O        -4.1062969092       -0.1826376587       -3.3562315866
 O        -3.9037369730       -4.1470555902       -3.6200491534
 C        -3.3111398665       -5.8464636937       -5.5190516946
 C        -3.3656684274       -6.7698101957       -6.6767145246
 C        -4.1466842731       -8.1004610519       -6.5593957564
 C        -3.0354175460       -9.2980192079       -6.1782901624
 C        -2.2431589697       -9.8584152535       -7.2832104385
 O        -2.8534343604       -6.4366104470       -7.7434216543
 O        -2.8069147908       -9.4351418883       -5.0263280825
 C        -5.2136174715       -8.0068476075       -5.4769844765
 C        -4.6315406144       -8.5149679785       -7.9385866970
 H         5.1289750415        5.3535551325       -6.7160637303
 H         5.6389051762        3.7633271282       -6.1586145482
 H         5.4679533181        3.9758941773       -7.7760793565
 H         3.4569695275        3.9748262171       -4.4273265063
 H         1.6664052863        3.7905567911       -4.1697227987
 H         1.1109278579        2.5978353700       -7.4919042249
 H         1.7146986629        0.9051572471       -7.8669621295
 H         2.2404815901        2.4527284597       -8.6701719711
 H         4.0098551269        0.5061841438       -7.6742107334
 H         4.8746130442        2.0106515546       -7.7705364810
 H         4.9448829887        1.0847728953       -6.3046962324
 H         2.0182635981        1.9494457382       -2.5294574481
 H         3.8031778219        1.7863661685       -2.9069269625
 H         2.3591844496        0.5099814614        0.2865740904
 H         4.0728243153        0.4768272129       -0.0993478923
 H         5.9685571687        2.3984585489        0.0498253016
 H         6.0308951096        3.3240715041       -1.3995947319
 H         5.1851435974        1.9945432933       -1.6883697268
 H         5.1022128192        4.5559041140        1.0105762057
 H         5.0151243306        5.3461204280       -0.4612940127
 H         3.4762226720        5.2106729454        0.7254584947
 H         3.7513713861        1.0887824477        2.6619042939
 H         4.3238068667       -0.3796328539        2.2826950939
 H         2.5237955716       -2.3966543430        6.4676091231
 H         3.8047267026       -1.5147198734        5.7916651922
 H         0.4810879773       -3.0939395788        4.1498227571
 H         0.1264524678       -2.7633154960        2.4552889875
 H        -0.5398351369       -1.5268716532        3.7235883430
 H         2.8544138328       -3.0311730985        2.5701841533
 H         3.8566599198       -2.3554761209        3.7644960969
 H         2.4131465758       -3.1468455995        4.2452516550
 H         1.5570799877       -0.3690894813        7.4925881186
 H         2.8651610852       -1.2061912799        8.1555955512
 H         1.5686933592        4.0296774485        7.3945250419
 H         1.9401534975        2.8290702724        6.1955715433
 H         4.4860372752        0.9845811568        9.9935075423
 H         2.8781915097        0.2660604170       10.0560854313
 H         3.0827158419        2.0155319063       10.5863945716
 H         5.0798165548        2.8199348401        8.4567184248
 H         3.9963149564        3.4038192686        7.1683216305
 H         3.7546382008        3.8306183777        8.8031718702
 H        -0.7388807692        3.7064898602        6.9791027228
 H        -0.6012497438        2.0177725159        6.4764821515
 H        -3.7555292709        1.9209982662        4.2904778204
 H        -4.3535324123        2.6686367627        2.8713049234
 H        -2.9844899738        2.8143525988        6.1212125514
 H        -4.1037204855        4.0852876444        5.4320680948
 H        -2.8354714423        4.5799509434        6.3968876782
 H        -2.5822805737        6.0084149095        4.1601319669
 H        -1.1032212320        5.5655628826        3.5664298272
 H        -2.4233472580        4.9729571292        2.6755609996
 H        -2.4918300390        0.4821313053        2.1570244666
 H        -3.7196338217        0.0689974930        3.1992133355
 H        -4.0201838545       -2.7525080289       -1.1543326499
 H        -5.5841349445       -2.7608941885       -0.3814981428
 H        -6.2512308477        0.5750007863       -0.4649935007
 H        -5.5604564027        0.9240757716       -2.0711513647
 H        -5.6581034909        2.0861296823       -0.9789883657
 H        -3.1690872096        2.1034338917       -1.0257877667
 H        -2.1851251778        0.9567420456       -0.1189124843
 H        -2.8012922013        0.4739586095       -1.7347159859
 H        -6.3523843136       -1.1494857259       -2.1814728795
 H        -5.9046406458       -2.6982861563       -2.6641876945
 H        -3.8367631541       -4.1081016238       -6.7582466892
 H        -2.2482657270       -3.9594019892       -6.2219730291
 H        -6.1291569861       -3.3741605823       -5.2373625370
 H        -6.1079178003       -2.0196434391       -6.3943725504
 H        -6.5779067769       -1.7230409411       -4.7378124167
 H        -2.5622638614       -0.9641116551       -5.3106271587
 H        -3.3358306304       -1.7148541495       -6.6698381270
 H        -3.8152683432       -0.1456147592       -6.0632910508
 H        -2.4729973796       -6.1670088485       -4.9893053173
 H        -4.1076330543       -5.9846703091       -4.8728319279
 H        -1.6417263301       -9.1106071849       -7.8053869468
 H        -1.6486204610      -10.7322263015       -6.9102898956
 H        -2.8847534176      -10.3436858451       -8.0023596475
 H        -5.1731668391       -8.1596078547       -4.4463497601
 H        -5.9047073414       -8.6046407043       -5.9851904394
 H        -5.7006476845       -7.0563701312       -5.5049186788
 H        -5.2264048899       -7.8205406982       -8.4229089246
 H        -3.6725205980       -8.6071121408       -8.5555425738
 H        -5.1712717291       -9.4675342826       -7.7547777271
 Na        1.4896532254        2.2594644390        3.2825005530
