155

 C        -0.3211086739        2.6025540181       -9.7042700628
 C        -1.2020001236        3.1951870714       -8.5994609412
 C        -0.6591602751        3.2562184775       -7.0500931207
 C         0.8111746495        2.8881622333       -6.9817699313
 C         1.3381757446        1.9454321982       -5.8623187774
 C        -0.7347993208        4.7309452361       -6.5242823733
 C        -1.6909471859        2.3360209112       -6.3226771519
 O        -2.1680425452        3.8883278486       -8.7876945157
 O         1.7184421356        3.2513369578       -7.7594968795
 C         1.7098935118        2.8417872151       -4.5948783224
 C         1.4405679701        2.2138360805       -3.1993436330
 C         2.4292859147        1.9882131750       -2.1164945876
 C         1.8872742412        0.8409457515       -1.0990431301
 C         1.1077305112       -0.3820636001       -1.5902073438
 O         0.2248792730        1.8241900640       -2.9855231181
 O         2.0721094839        1.0731535880        0.0976209320
 C         3.7332302896        1.3667648388       -2.5673755386
 C         2.8255627055        3.4029755140       -1.4833257468
 C         1.5454934827       -1.8086015306       -1.0998260223
 C         1.4842959234       -1.8353103718        0.4632077071
 C         2.7666710562       -2.4578122172        1.0668308034
 C         2.8737167417       -2.0086212761        2.5629626606
 C         3.4079972417       -3.0187979754        3.6627140392
 C         2.7954527728       -3.9984726200        0.6597928078
 C         3.9796052821       -1.7541411088        0.4362764630
 O         0.4459810198       -1.4294925843        0.9594367435
 O         2.7911882695       -0.8109101083        2.9136005846
 C         3.1698563197       -2.7287010114        5.1989888475
 C         4.1608449459       -1.8991942545        5.9598563800
 C         3.7677942637       -1.4253866167        7.4313117514
 C         2.6039461476       -0.3825642877        7.2977647381
 C         3.0594702849        1.0363648977        7.2061638265
 O         5.2659060443       -1.6204828539        5.5404963371
 O         1.4593990699       -0.7510080472        7.5349162463
 C         3.2022262823       -2.6771259749        8.2545954962
 C         4.9444925605       -0.7683204830        8.1946324389
 C         1.7867251249        2.0269962118        6.9008895263
 C         1.2712927808        2.0770653048        5.5151875555
 C         0.6826894905        3.5389790489        4.9826182666
 C        -0.2772629417        3.4070383494        3.7117399257
 C        -1.7007608209        3.8516645804        3.7662975620
 C        -0.1774827150        4.0278792452        6.0706918394
 C         1.9516120525        4.4637054942        4.6781214561
 O         1.3753310531        1.0576851923        4.8065260338
 O         0.0162547257        2.7397464822        2.6744471565
 C        -2.4686828081        3.8636459429        2.3077131793
 C        -1.8259147808        4.5435821419        1.1064631347
 C        -2.3084453490        4.0582943887       -0.2730440221
 C        -2.9179844841        2.5567034909       -0.3726421479
 C        -1.8989408410        1.3989431526       -0.4475627380
 O        -0.8034517988        5.2236617581        1.2645241325
 O        -4.0810615050        2.4635255114       -0.1074117405
 C        -3.5151339781        4.9116703663       -0.9672723566
 C        -1.0981192777        4.1104966319       -1.1788657782
 C        -2.7131703076        0.1318630476       -0.0639314653
 C        -3.6238514233       -0.4978554142       -1.2404560084
 C        -4.8635442353       -1.3594679828       -0.8229135139
 C        -4.4773986859       -2.8358691371       -1.2044353848
 C        -4.0370580762       -3.1156782184       -2.6600335739
 C        -5.4117067862       -1.4766411726        0.6902552846
 C        -6.0147026107       -0.9083723313       -1.7522159205
 O        -3.3833547891       -0.2745392408       -2.4119463788
 O        -4.5729239866       -3.6924253717       -0.3035284729
 C        -3.5082579530       -4.5690331410       -2.7915376098
 C        -4.3121923123       -5.3766759457       -3.7509507293
 C        -4.2515573602       -6.9744607224       -3.7210082097
 C        -2.8388151820       -7.5926166764       -3.5454727728
 C        -2.4501949790       -9.0688431883       -3.9003391285
 O        -4.8900812655       -4.9085656694       -4.7133192879
 O        -1.9159004855       -6.7717861391       -3.3303349656
 C        -5.0438539326       -7.2484379098       -2.3596442548
 C        -4.8988946270       -7.6502647982       -4.8500624667
 H        -0.8414086906        2.6110680268      -10.6549092846
 H         0.5106932252        3.4024952886       -9.5489515063
 H        -0.1781878604        1.5387636242       -9.5034106497
 H         0.6469658500        1.3374360643       -5.3158255515
 H         2.0074973670        1.1537497429       -6.2983981099
 H        -0.4163631847        4.9025976077       -5.4142835861
 H        -1.7990138215        4.9879481654       -6.7342050439
 H        -0.1682545457        5.3550777658       -7.1851923363
 H        -1.4343253028        2.1870223656       -5.2378427729
 H        -2.7090560904        2.7962753473       -6.2583310511
 H        -1.8195731836        1.4006472919       -6.7721093841
 H         2.7211159833        3.2330613403       -4.5958283989
 H         1.0238336899        3.7112541198       -4.5948425389
 H         0.0166680343       -0.2498644915       -1.1690572387
 H         1.0549257365       -0.3362637069       -2.6442706742
 H         4.3105367165        1.0921297287       -1.6924770912
 H         4.4546400016        2.0202781967       -3.0625901972
 H         3.6571072090        0.4578314588       -3.2237626118
 H         3.6366529103        3.4024522681       -0.8190972960
 H         2.9049939785        4.0229071757       -2.3609920955
 H         1.9641094738        3.6373514413       -0.9668092338
 H         2.4985148700       -1.9221132334       -1.6106732831
 H         0.8387864412       -2.4816718481       -1.5407930515
 H         2.8592775794       -3.9261362221        3.3941856096
 H         4.4369436069       -3.0439117704        3.3348178601
 H         3.8469044400       -4.3903064511        0.8019480707
 H         2.5819594601       -4.1073461981       -0.3465893184
 H         2.2103892246       -4.5418694161        1.3155585157
 H         4.2709558749       -1.8712353813       -0.6334112875
 H         3.8802473588       -0.6521418756        0.5211643230
 H         4.9242262555       -2.1042061244        0.8418091306
 H         2.1751768657       -2.5416096500        5.5284349676
 H         3.4531640860       -3.8030807433        5.6053491118
 H         3.4365830830        1.4030289173        8.0867410271
 H         3.7801967776        1.1655163222        6.3395057936
 H         3.8439954731       -3.5425505476        8.3555050890
 H         2.3662908550       -3.2100700006        7.7460496686
 H         2.9910873104       -2.3713266623        9.2716596334
 H         4.6196868428       -0.3690235007        9.1374867528
 H         5.7768427565       -1.4667945788        8.3906770819
 H         5.2728052469        0.1515730919        7.6866508858
 H         2.0533854720        2.9792442648        7.3349215962
 H         0.9631138243        1.6885344247        7.5165180820
 H        -2.2054212746        2.8814716488        4.2967739996
 H        -1.8423995265        4.7617671123        4.2674152354
 H        -0.8546565860        3.1135005529        6.1185511997
 H        -0.8816660568        4.8469531592        5.8821448985
 H         0.0262763746        4.0840500108        7.2426321318
 H         2.5194525756        3.8181800101        4.0529977502
 H         1.6458987184        5.2762548284        4.0509039811
 H         2.3861734817        4.8606792743        5.4751229404
 H        -2.4435071157        2.8048323269        2.0596043826
 H        -3.6173845228        3.9665890540        2.4148469715
 H        -1.5874013581        1.1649306757       -1.5110875016
 H        -0.9350940724        1.5357450433        0.2315456622
 H        -4.4196640768        4.6034475998       -0.4632534415
 H        -3.7087465938        4.5391771576       -2.0142344288
 H        -3.3170706195        6.0301584580       -1.0452867831
 H        -0.2321409689        3.6994272193       -0.7677246033
 H        -1.4025914401        3.5758476516       -2.1198624203
 H        -0.7881532242        5.1004287903       -1.6188089259
 H        -3.3633265167        0.5048497802        0.7775440213
 H        -2.0650909066       -0.6731520631        0.3713501005
 H        -4.8924737304       -2.7777584317       -3.2170091831
 H        -3.2717004932       -2.4303469747       -2.8767856214
 H        -4.5926603583       -1.3695697404        1.3517842250
 H        -5.7426723533       -2.4724751441        0.8708599136
 H        -6.2432056177       -0.8521376209        0.9152613242
 H        -5.8180586932       -0.9393884756       -2.8688275769
 H        -6.9361557477       -1.3708829380       -1.3904120377
 H        -6.1834166611        0.1214787356       -1.4887685094
 H        -2.4610099760       -4.5471499706       -3.1454141253
 H        -3.5767620332       -5.1023473808       -1.7908105208
 H        -1.8849553254       -9.4195000672       -3.0420917074
 H        -3.1667575205       -9.7974131279       -3.9856800672
 H        -1.8032317090       -9.1099336659       -4.6659610871
 H        -4.3417228315       -7.1027132127       -1.5610003612
 H        -5.2516003198       -8.3259587337       -2.2572853361
 H        -5.9840554212       -6.5876733364       -2.5088255175
 H        -4.1793084391       -7.5539768323       -5.6142586750
 H        -5.1431705078       -8.7745302987       -4.7342381825
 H        -5.7394563904       -7.1019636436       -5.1960901613
 Na        0.9565285518        0.7654067417        2.4750187745
