155

 C        -0.8217513877        2.2867093360       -9.5081640239
 C        -1.7025970058        3.3307304408       -8.7149534693
 C        -1.2960788531        3.7487286602       -7.2365845564
 C         0.1940042985        3.2379591273       -6.9622649375
 C         0.2887092976        2.1663418343       -5.8999894073
 C        -1.3597862198        5.3315458441       -7.1944642404
 C        -2.4061108174        3.1342863824       -6.2861180628
 O        -2.7480444910        3.6386171602       -9.2912172722
 O         1.1458939436        3.8613892163       -7.4576460707
 C         0.5953574522        2.7646702741       -4.4712736671
 C         0.4810550724        1.7402396806       -3.3291298161
 C         1.7778659057        1.3694021906       -2.4879163041
 C         1.5043271777        0.3291595241       -1.2502640792
 C         0.4929902931       -0.9207777654       -1.6220641147
 O        -0.5445005641        1.0214922494       -3.3643700096
 O         1.9703590071        0.6273089510       -0.1845823834
 C         2.7728328895        0.5788937211       -3.4851936450
 C         2.5064995471        2.6896701528       -1.9795020476
 C         1.0813556245       -2.2039175604       -0.9170426529
 C         1.5763605659       -1.8601185944        0.4738493097
 C         2.8913004213       -2.6696765277        0.9317182777
 C         3.1771779507       -2.4621130855        2.4769894621
 C         3.7246731273       -3.5673263980        3.4242935127
 C         2.8961309362       -4.1075932020        0.3254942731
 C         4.0729630687       -1.8515490270        0.2277758357
 O         0.9791791722       -1.2027837083        1.2321035501
 O         3.0750820160       -1.3464482205        2.9964210245
 C         3.3796005483       -3.5321499641        4.8864692702
 C         4.0631150164       -2.4299650766        5.7506643407
 C         3.6804729047       -2.0968983494        7.2910877560
 C         2.9197163563       -0.7783493501        7.3840880248
 C         3.3383168572        0.4846655556        6.5707988611
 O         5.0489094725       -1.8753658916        5.3375613871
 O         1.8700611245       -0.7448230780        7.9510688386
 C         2.9722760881       -3.3517793405        8.0131670750
 C         5.0932577048       -1.9790781924        8.0544953758
 C         2.3494924199        1.6984444185        6.5000637402
 C         1.6128983507        1.7559869091        5.0627988197
 C         1.0793376703        3.1907607059        4.5251632955
 C         0.0923273865        3.3152235821        3.2727812895
 C        -0.3949858986        4.7766481170        3.0019162243
 C         0.6877031295        4.1008048223        5.8554444803
 C         2.4698277496        3.6455528482        3.8686570133
 O         1.6730603314        0.8367195412        4.3664274651
 O        -0.1663941297        2.3791980134        2.5379660545
 C        -1.3627684604        5.0844819055        1.8866937090
 C        -0.9826629785        4.4455989417        0.5526371071
 C        -2.3098651626        4.4146211800       -0.5680800672
 C        -2.9585121556        3.0995449565       -0.0447433971
 C        -2.2134631520        1.8665071968       -0.2760908828
 O        -0.0241543181        3.7435227631        0.3107932735
 O        -4.1619317627        2.9750664431        0.2170275288
 C        -3.3146787461        5.7048370080       -0.4071545953
 C        -1.6320204972        4.4623266931       -1.9377319041
 C        -2.9540685877        0.6339096393        0.1730482985
 C        -4.1104414703        0.1984657488       -0.8578529493
 C        -4.8186878519       -1.2436945471       -0.6099598962
 C        -3.7209418264       -2.2563907291       -0.8410693983
 C        -3.2812180600       -2.7282709117       -2.3170791727
 C        -5.3924925049       -1.4554650804        0.8409628911
 C        -5.9413660043       -1.3611456039       -1.6494092244
 O        -4.3077287061        0.8221303494       -1.9347399129
 O        -3.0491637458       -2.6034435506        0.0600513708
 C        -3.0825088678       -4.2688375814       -2.5343311575
 C        -4.3134987423       -4.9842463910       -2.4018359138
 C        -4.3430616441       -6.5559691112       -2.7307600128
 C        -2.8517853954       -6.9176878764       -2.7092904470
 C        -2.3722173769       -7.6680677231       -3.9878319349
 O        -5.3476788342       -4.4405688751       -2.0825992830
 O        -2.0495382067       -6.7640514400       -1.8460046111
 C        -5.0963760130       -7.1471009276       -1.4893737284
 C        -4.9898595481       -6.6597193244       -4.1604655595
 H        -1.5814070864        1.6207039894       -9.9200571967
 H        -0.2574307845        2.7578776934      -10.1708252812
 H        -0.1318108608        1.7640842955       -8.8236971269
 H        -0.6037857368        1.5834311295       -5.8755807199
 H         1.1239331444        1.6282968169       -6.1229923901
 H        -0.5673044169        5.7303919786       -7.7513035028
 H        -1.2496997167        5.7311024607       -6.1987408260
 H        -2.3726802588        5.7423184079       -7.5091573945
 H        -2.4242556985        3.6967295570       -5.4004846231
 H        -3.3844839728        3.1860306232       -6.8130614656
 H        -2.1474090456        2.1219152248       -5.9724788201
 H         1.4548812470        3.4505024266       -4.3070268346
 H        -0.1659672991        3.5649113721       -4.2812589513
 H        -0.4155354358       -0.6177455602       -1.0193441444
 H         0.4417719372       -1.0027870278       -2.6563468241
 H         3.7813996776        0.4016282995       -3.0813088511
 H         2.8574326761        1.2085345443       -4.4504157565
 H         2.4247201774       -0.3895391336       -3.7533399792
 H         3.5286776575        2.4186902092       -1.5961685085
 H         2.5610019260        3.3419704886       -2.8560392129
 H         1.7599127781        3.2464605012       -1.3380063624
 H         1.9729118024       -2.6139560512       -1.4100469605
 H         0.3600392161       -2.9895524140       -0.8426934915
 H         3.2028246671       -4.4175890926        3.0442170561
 H         4.8029331693       -3.7803323133        3.1322036518
 H         3.3363266252       -4.9195475565        0.9995524703
 H         3.4580210693       -4.1163005524       -0.7199930642
 H         1.8157488398       -4.4106693191       -0.0314850495
 H         3.7872655987       -1.7318808920       -0.7979341395
 H         4.2852818735       -0.8227973417        0.5686629768
 H         5.1082803007       -2.2323821074        0.3507150975
 H         2.3579456974       -3.4080469206        5.0907716328
 H         3.6475948916       -4.5326086510        5.4215505508
 H         4.2444261752        0.8983261986        6.9480543595
 H         3.4210254026        0.0966963001        5.5398705640
 H         3.8352001933       -3.9716105548        8.3366474617
 H         2.3173496773       -3.9258084671        7.4339692506
 H         2.3042940508       -3.2332064229        8.9169723974
 H         5.0013878743       -1.5684755571        9.0533881657
 H         5.7058874700       -2.9086147690        8.1883754951
 H         5.7782663136       -1.4108221397        7.4427138397
 H         2.9354281782        2.5768019996        6.8331137093
 H         1.5951467838        1.6828655438        7.3139447724
 H        -0.7515561384        5.2723191211        3.9131286517
 H         0.4867354443        5.4330210262        2.7110721164
 H        -0.2045445232        4.0884843455        6.4723494599
 H         0.6393964859        5.2331240702        5.6730862161
 H         1.5298749266        4.1289804283        6.5204709115
 H         2.4423232986        3.0343384313        2.9287424016
 H         2.3981075903        4.7203521957        3.7447376027
 H         3.4380720186        3.3153010982        4.4759603726
 H        -2.3549643261        4.7456779248        2.2780724483
 H        -1.5415899730        6.1541317791        1.8089832609
 H        -2.1420596595        1.7649828998       -1.2984355328
 H        -1.2699389606        1.8350135399        0.2255208974
 H        -3.8589631708        5.5742697260        0.5875221150
 H        -3.9068660864        5.9579089951       -1.2339380095
 H        -2.7681087532        6.5440731757       -0.0893084665
 H        -0.6788739540        3.7590698317       -2.0216827726
 H        -2.2884480146        3.9345608602       -2.6274304471
 H        -1.5397240252        5.4502366335       -2.2905898988
 H        -3.3387873221        1.0009814620        1.1228870438
 H        -2.3180140003       -0.1812360755        0.3731127921
 H        -4.0939945104       -2.3322068422       -2.9649029504
 H        -2.3113973958       -2.2653116130       -2.6423567507
 H        -4.6210054135       -1.1473810117        1.5924666870
 H        -5.6928271835       -2.5430154203        0.8906237864
 H        -6.2404078386       -0.7844394088        1.0818559482
 H        -6.1235809337       -0.3589231730       -2.0885393567
 H        -5.6076054842       -1.8942432408       -2.4983276353
 H        -6.8299215764       -1.6989171014       -1.1733690981
 H        -2.7017475945       -4.4688898764       -3.5282143800
 H        -2.2488517623       -4.6363902638       -1.9263341527
 H        -1.2797585192       -7.7333018687       -4.0784353037
 H        -2.7185846277       -8.7531016794       -4.0948051227
 H        -2.7673605918       -7.2415767325       -4.9949831849
 H        -4.4810280791       -6.6912552386       -0.7999102899
 H        -5.3310857399       -8.2149649429       -1.5214808503
 H        -5.9270801761       -6.4853800839       -1.4172175181
 H        -4.3545430852       -6.0060928543       -4.8547778655
 H        -5.3269806615       -7.5713003038       -4.6100284863
 H        -5.9007809625       -6.1079855232       -3.8178545055
 Na        2.0464692944        0.3696966817        2.1666347950
