155

 C        -3.2054351922        2.1531982683       -9.4507063441
 C        -3.1842447271        2.5980140956       -8.0235474908
 C        -2.6575697896        3.9126706588       -7.2978301970
 C        -1.5510649033        3.4845835433       -6.3351431355
 C        -1.9918107139        2.6706910999       -5.0024835904
 C        -2.1397104079        4.9498421172       -8.3245948457
 C        -3.6562124628        4.6219627159       -6.3015067866
 O        -3.6928780320        1.8372876002       -7.1871850180
 O        -0.4133745427        3.8717111187       -6.4014866041
 C        -0.8502456188        1.5802624001       -4.7927791736
 C        -0.5850635881        1.1708452064       -3.3280167639
 C         0.9336547075        0.8001464664       -2.9862059313
 C         1.0881163457       -0.3776581409       -2.0327758510
 C        -0.1101238769       -1.4774154691       -2.2767080935
 O        -1.5469418368        1.1321965699       -2.5298476327
 O         2.0000614087       -0.5455405334       -1.2168659962
 C         1.6508998216        0.2388206295       -4.3312067710
 C         1.6938030759        1.9839117101       -2.5498134877
 C         0.0032327479       -2.7615893853       -1.4511835095
 C         0.6522587042       -2.5073099759       -0.0541740002
 C         1.6821518721       -3.5515964389        0.5186891321
 C         1.7260962284       -3.3724177468        2.0688945471
 C         1.5378357213       -4.5507899050        2.9455329930
 C         1.2182014979       -4.9838380179        0.3163804786
 C         3.1464843339       -3.2771128229       -0.0733017803
 O         0.2828786861       -1.5466261162        0.5518363435
 O         2.0922182220       -2.2857763962        2.5626501793
 C         2.0555928791       -4.0959034459        4.3700897862
 C         3.5425553777       -3.6263308538        4.3504788207
 C         4.1127115595       -2.7061411173        5.5550603705
 C         3.8622550275       -1.2856723937        5.0987571843
 C         5.1023366569       -0.3904242752        4.7353506233
 O         4.3669976352       -4.0654271485        3.5911164536
 O         2.7491047974       -0.8208177148        4.9969525635
 C         3.2082544842       -3.0491807343        6.8605373754
 C         5.6041541327       -2.9823287324        5.7799723587
 C         4.7932713912        1.1584975661        4.5251752067
 C         4.0937754693        1.4064023582        3.1434227970
 C         3.8760847770        2.8434646287        2.5582969880
 C         2.4324862236        2.9953715370        1.4954650148
 C         2.2376224416        4.3369277292        0.6317623575
 C         3.8182029172        3.8836333294        3.6733160097
 C         5.0922323873        2.9282592425        1.6213573408
 O         4.0358165856        0.4429222311        2.3431290353
 O         1.5987646457        2.1480025261        1.5344393292
 C         1.0839377456        5.4330621933        1.2805766240
 C        -0.1200476857        5.5428352662        0.3228646115
 C        -1.6074050815        5.5751936480        0.9927574467
 C        -1.9696522122        3.9940751989        1.2277467418
 C        -2.3272640852        3.1604697886       -0.1092569462
 O        -0.0724133962        5.4282990967       -0.8696949254
 O        -2.1216294735        3.7278501662        2.3722656131
 C        -1.7561494478        6.2595681428        2.4376757682
 C        -2.5393527191        6.2918975701       -0.0270507173
 C        -2.6114593233        1.6638920455        0.0095330029
 C        -4.0390281917        1.4427213056        0.6012491323
 C        -4.8143935125       -0.0575401669        0.9297050370
 C        -4.4382020891       -1.2182012375        0.0103021169
 C        -5.3498279051       -2.4301141748       -0.0283648349
 C        -4.2859119785       -0.4103580739        2.3395057134
 C        -6.3186754547        0.4184598909        0.9048026231
 O        -4.6946087213        2.4133113939        0.8904483490
 O        -3.3073882749       -1.1547041406       -0.4987043926
 C        -5.2401673828       -3.5619561311       -1.0119465251
 C        -3.8144228382       -4.4229497895       -1.0336862655
 C        -3.4474113258       -5.5251878890       -0.0831153313
 C        -3.1653431661       -6.8192744619       -0.8255297267
 C        -3.8306414258       -7.0038163716       -2.2945751727
 O        -3.1714891359       -4.3010155162       -2.0573850442
 O        -2.4497394843       -7.6237135711       -0.3928836048
 C        -2.2219454306       -4.9707416246        0.7871498326
 C        -4.7328397218       -5.7291662402        0.8170462245
 H        -4.0729028137        1.4631997855       -9.7783638398
 H        -2.8553452213        2.7290168315      -10.2334474389
 H        -2.5155514827        1.2326516813       -9.6277068861
 H        -2.1329862561        3.2677476001       -4.0801069970
 H        -2.8889359427        2.0561757751       -5.1535179074
 H        -1.7367760602        4.3167962612       -9.1557705701
 H        -1.4699523300        5.5940547383       -7.8862342338
 H        -2.9286726787        5.4803928661       -8.8700888208
 H        -4.5269918486        5.1403354072       -6.8966024312
 H        -4.0748664350        3.8913946828       -5.5972634770
 H        -3.1211292396        5.3113006541       -5.7331255905
 H        -1.1994376879        0.7054764427       -5.3804812673
 H         0.1659398953        1.8534674150       -5.0871845234
 H        -1.0835115586       -0.9957287160       -1.9177056478
 H        -0.3118030275       -1.8953571888       -3.2208172633
 H         2.6730878266       -0.0016769201       -4.0508822512
 H         1.7299284427        1.1714050826       -4.8838405867
 H         1.0341058426       -0.4838558086       -4.8226390844
 H         2.7858817186        1.7757488480       -2.3923563116
 H         1.7106059242        2.6213685074       -3.4773439895
 H         1.4053634418        2.4449495048       -1.5939580906
 H         0.6874863117       -3.4759322520       -1.9804880417
 H        -0.9488320145       -3.2939183889       -1.3049579058
 H         0.4508665015       -4.7745826526        2.8767045572
 H         2.0505333066       -5.3499324638        2.5193363833
 H         2.0113644093       -5.8155062637        0.3101720067
 H         0.6738289002       -4.9787367231       -0.6142037283
 H         0.6516384223       -5.4100500191        1.0823359458
 H         3.1060174869       -2.2459663022       -0.3339428232
 H         3.9794764117       -3.5679988275        0.5369079287
 H         3.1286240497       -3.8152616903       -0.9909488387
 H         1.3071848541       -3.3912955866        4.8770564951
 H         2.0997260440       -4.8743589351        5.1471301303
 H         5.8283474901       -0.4888849616        5.4980060193
 H         5.4836583871       -0.7955893250        3.7267140212
 H         3.2122056469       -4.1204702435        7.0734138756
 H         2.1564705133       -2.6888057465        6.7612926752
 H         3.7638137206       -2.5607416707        7.6425884882
 H         6.1269629572       -2.1444304721        6.2688565943
 H         5.7269179884       -3.9388223088        6.2961813919
 H         6.0899817016       -3.1427779008        4.8185268210
 H         5.6919402620        1.6904111198        4.7630315110
 H         4.0129728176        1.4817531131        5.1859046727
 H         3.0899821994        4.8919842155        0.5729688042
 H         1.8869725902        4.1543837835       -0.4367446293
 H         4.0279723139        4.8747963071        3.3048925320
 H         4.5480873989        3.4494436398        4.3458123175
 H         2.8149399907        3.7129376642        4.0375064501
 H         4.8166733767        2.3981072175        0.7353786421
 H         5.5083363052        3.8823281305        1.3659662485
 H         5.9785866661        2.5327341410        2.1962193905
 H         0.5468252611        5.0763505482        2.1810164010
 H         1.5806558660        6.2739885834        1.5700864272
 H        -3.2987135396        3.6638902821       -0.3847407254
 H        -1.4819596184        3.4189710346       -0.8242298211
 H        -1.3700234120        5.6845693880        3.3020815159
 H        -2.7298315559        6.1566917626        2.8124844267
 H        -1.3061901971        7.1820803089        2.2582595898
 H        -2.5421449458        5.8401128714       -0.9702277220
 H        -3.5244066863        6.3535383286        0.5075226740
 H        -1.9946295915        7.2451646795       -0.1509790813
 H        -1.9358391614        0.9065754995        0.4755257732
 H        -2.8559855614        1.4558201768       -1.0627716816
 H        -5.4911452895       -2.8209673365        0.9362742035
 H        -6.3034289679       -2.0252451290       -0.2964908621
 H        -3.2304050694       -0.2799022928        2.4513933607
 H        -4.5552936168       -1.3680098524        2.7198581730
 H        -4.8086930272        0.2196980458        3.0413850382
 H        -6.4323468886        1.3318268923        1.4025642138
 H        -6.5065566392        0.4607401547       -0.1725062290
 H        -7.1501959993       -0.2908229763        1.1665007635
 H        -6.0498780736       -4.2462331563       -0.8097284918
 H        -5.3385893672       -3.2596964049       -2.0541147163
 H        -4.0499528578       -6.0213367404       -2.8134531200
 H        -3.2920166960       -7.7597711639       -2.8991126776
 H        -4.7225512034       -7.5680174318       -1.9715490835
 H        -1.7142939933       -4.1617817046        0.1861166862
 H        -1.5890705053       -5.8619041257        0.7916797956
 H        -2.4498804136       -4.8357580653        1.8765165650
 H        -5.5749439310       -5.9286893279        0.1607943893
 H        -4.6333773084       -6.5084891872        1.6762369285
 H        -5.1318696379       -4.8254248615        1.3992917023
 Na        1.9967748191       -0.4473174481        1.1847195966
