155

 C        -3.3876134105        2.4296616001       -9.2829642832
 C        -3.4618972363        2.5220303391       -7.8037244143
 C        -2.9082348361        3.9825084867       -7.3563532378
 C        -1.6353485248        3.5925735261       -6.3734691525
 C        -1.8795433763        2.6333634465       -5.2213699341
 C        -2.4896958060        5.0721739387       -8.5128971430
 C        -4.0366315447        4.6297407871       -6.5404907865
 O        -3.8066525796        1.6068136807       -7.1230587801
 O        -0.4939638989        3.9044236670       -6.7342958668
 C        -0.7746398164        1.5789717437       -5.0753804084
 C        -0.3730341672        1.1600093079       -3.6121793834
 C         1.0605230292        0.6646882229       -3.3475416861
 C         1.0153195106       -0.5494152800       -2.3128922204
 C        -0.2104090057       -1.3323387756       -2.1854156308
 O        -1.1103071093        1.3491314600       -2.7415306623
 O         2.0868266475       -0.6944871447       -1.7140569852
 C         1.7528617291        0.2267873253       -4.5823090983
 C         1.8690728619        1.8854737186       -2.5701703294
 C         0.1833726424       -2.7072264768       -1.5720896557
 C         0.6352304997       -2.4928485087       -0.0412374364
 C         1.5292221002       -3.6948776542        0.5847735944
 C         1.6334753503       -3.4297234158        2.1204242739
 C         1.6554718826       -4.6298279630        3.2067054350
 C         0.9298953330       -5.0502320407        0.2141254673
 C         2.8896437606       -3.6666360422       -0.1012786627
 O         0.3120041367       -1.5213383264        0.6475027594
 O         1.9780749723       -2.3233790924        2.4036377451
 C         2.1826249603       -4.1591534106        4.4620356533
 C         3.5334836610       -3.5385992642        4.2744160874
 C         4.1630873074       -2.7141048482        5.4261991493
 C         3.9592030404       -1.2514318022        4.8808026136
 C         5.1181062046       -0.3613017129        4.5273613550
 O         4.0369292585       -3.6413804132        3.1561058233
 O         2.7948164493       -0.8289717116        4.8624028096
 C         3.4834920792       -2.7229787015        6.8024724665
 C         5.6057589836       -3.2381021957        5.6397390666
 C         4.6308599235        1.0441267319        4.2730236194
 C         4.0898598377        1.3237175582        2.9390847845
 C         3.9670724924        2.8188993228        2.4341467824
 C         2.5173096980        2.9668288948        1.8273967339
 C         2.1643231701        4.1632224247        0.9275612760
 C         4.1954531273        4.0102412864        3.5105030534
 C         4.9552224356        3.1034689631        1.3281796169
 O         3.8439054989        0.4232390005        2.1515584261
 O         1.7005879870        2.0577594158        2.0759562792
 C         1.1628439786        5.0728583122        1.4158346537
 C        -0.1105048416        5.1482741585        0.4865289844
 C        -1.5770213874        5.2731082064        1.1321295194
 C        -1.9642849616        3.8389679252        1.3139594074
 C        -2.1575550462        3.0350280533       -0.0235351764
 O         0.1205514161        5.2141973493       -0.7155613361
 O        -1.8560397898        3.2881086302        2.3715916742
 C        -1.5398179811        6.2302206597        2.3587271243
 C        -2.4231995749        5.9266693103        0.0546479289
 C        -2.5380901674        1.6611674489        0.3879206683
 C        -4.0048996834        1.5661441845        0.9447969540
 C        -4.7003751520        0.1223450101        1.0612437482
 C        -4.3110378391       -1.1690078859        0.2073893377
 C        -5.3607514773       -2.2744601795        0.3315062534
 C        -4.3490725696       -0.1333081505        2.5550473682
 C        -6.2221002395        0.3862320878        1.1011236325
 O        -4.5798698754        2.5787574682        1.3042773392
 O        -3.3499868315       -1.2440703062       -0.4817069648
 C        -5.3843334776       -3.3341990354       -0.8335060460
 C        -4.1582659952       -4.1478836412       -1.1281822204
 C        -3.6910940790       -5.3638896046       -0.0899040118
 C        -3.2987402404       -6.7176332651       -0.7514147751
 C        -4.1802228948       -7.3663775636       -1.8170068293
 O        -3.4610693927       -3.8397124408       -2.1064507875
 O        -2.3838599270       -7.3120545315       -0.1201165991
 C        -2.4490119590       -4.7422925588        0.6046820876
 C        -4.5322069196       -5.7985685590        1.0954121754
 H        -4.0241789267        1.7035638145       -9.6474430406
 H        -3.6230773534        3.4277801280       -9.7657203131
 H        -2.5062815083        2.1518802916       -9.7901713368
 H        -1.7185156283        3.2327337392       -4.3235468882
 H        -2.9060398996        2.2448076849       -5.1799523984
 H        -1.4686308843        4.9802353856       -8.7578426601
 H        -2.8846090345        6.0491245362       -8.0243994552
 H        -2.8363793761        4.9125675551       -9.5162246887
 H        -4.8928203089        4.6642276881       -7.1472675084
 H        -4.3240333599        4.0113314099       -5.6999483076
 H        -3.7086725047        5.6794862424       -6.1318217157
 H        -1.0395104190        0.6290223073       -5.5992935985
 H         0.1672748133        1.9545900995       -5.4929982654
 H        -0.9721402417       -0.8255576030       -1.6456541858
 H        -0.5998026476       -1.5493566400       -3.2230967480
 H         2.5700911453       -0.3749413323       -4.2402801147
 H         2.0665967074        1.0501147081       -5.2241134874
 H         0.9902334274       -0.4549623170       -4.9684861566
 H         2.8987559993        1.8553697762       -2.8096005577
 H         1.5499937014        2.8715447376       -2.7719086909
 H         1.7489117405        1.6861878295       -1.5358311302
 H         1.0083923521       -3.1893134158       -2.0899522783
 H        -0.6061433393       -3.4963797703       -1.5138032868
 H         0.7260936384       -5.1575348829        3.3334727367
 H         2.3987093304       -5.4177524895        2.8164063937
 H         1.6059292957       -5.8466010653        0.5373088677
 H         0.8399721195       -5.0471630448       -0.8902173452
 H         0.0335852714       -5.4185180964        0.7708158168
 H         3.0210602380       -2.7704597963       -0.7860078445
 H         3.6388721043       -3.8476607199        0.7093181503
 H         3.0018773069       -4.6000526191       -0.7173651682
 H         1.5160043950       -3.4870684945        4.9006714684
 H         2.1546586562       -4.9493143195        5.2452886446
 H         5.6855633088       -0.2509520580        5.5041143785
 H         5.6800235727       -0.7502435214        3.7383724023
 H         3.6416529774       -3.7390419139        7.2320195624
 H         2.4758630796       -2.6260862889        6.5725329908
 H         3.9418493573       -2.0737250386        7.5691378426
 H         5.9630538103       -2.8216034970        6.5781948253
 H         5.6985135932       -4.3333461211        5.5832662125
 H         6.2883837170       -2.8675778966        4.8552754423
 H         5.5849611578        1.6241999610        4.2787633630
 H         4.0759236442        1.5080336766        5.1208799577
 H         3.0643040007        4.7756871748        0.5462355188
 H         1.7920447569        3.7481733373       -0.0366491099
 H         4.9511368565        4.6107629179        3.0462846988
 H         4.6813159609        3.4763713495        4.3240872524
 H         3.2036885795        4.5205270240        3.6973532638
 H         5.0361406784        2.1672121690        0.7156358630
 H         4.7366392982        4.0117215268        0.6485749717
 H         5.8668346007        3.5674841274        1.6813105341
 H         0.8574702934        4.8191657939        2.4740331092
 H         1.5951609496        6.1490944727        1.5342614706
 H        -2.9362336307        3.5682958540       -0.5179596850
 H        -1.2015460354        3.1428040781       -0.4578925757
 H        -1.0237157609        5.8493887885        3.2157075351
 H        -2.6131432369        6.3050217061        2.8162801169
 H        -1.1203423559        7.1639459096        1.8600142853
 H        -1.9900622387        5.6090167369       -0.9183957717
 H        -3.4419068889        5.6389485689        0.1543514891
 H        -2.1927118537        6.9509035633        0.1877736841
 H        -1.8749080322        1.4593284058        1.2172542867
 H        -2.4552340726        0.9021001221       -0.4052597768
 H        -5.0992030969       -2.7730730869        1.3111252911
 H        -6.4443091035       -2.0296578748        0.4559109867
 H        -3.3039476314       -0.5278890955        2.5031826196
 H        -5.0102624700       -0.8147396439        3.1521197612
 H        -4.2294710429        0.7553466950        3.1951619977
 H        -6.2808339636        1.3005494871        1.7421567529
 H        -6.5720680003        0.7415426207        0.1568249951
 H        -6.8982077062       -0.3313992514        1.4438062309
 H        -6.2610485011       -3.9957752410       -0.7714211705
 H        -5.4579239626       -2.8139635358       -1.7788303492
 H        -4.5244361641       -6.5658205610       -2.3845745403
 H        -3.5122916290       -7.9670594181       -2.4123343474
 H        -4.9069522803       -8.0398458258       -1.4142238054
 H        -1.8198208520       -4.5379215014       -0.2720955434
 H        -1.8963622275       -5.3035658583        1.4286081583
 H        -2.8639322375       -3.7909225488        0.9350163689
 H        -5.4606312378       -6.3385114750        0.8119054538
 H        -4.0834649345       -6.3097212024        1.9035757752
 H        -4.7999073666       -4.9202619497        1.6225358791
 Na        2.2738347313       -0.2917461338        1.1837729550
