155

 C        -3.7946927317        2.4843999058       -9.4880469084
 C        -3.8254834192        2.5928527113       -7.9818630906
 C        -3.3227581673        3.8679625171       -7.3276401942
 C        -1.8045684223        3.5393336711       -6.9065818248
 C        -1.7114093886        2.7187138516       -5.5179397643
 C        -3.3425687234        5.0546086852       -8.4002623209
 C        -4.1453918233        4.3420492129       -6.0671567630
 O        -4.0533575159        1.6451109127       -7.3002689276
 O        -0.8638139395        4.0707330666       -7.4915219258
 C        -0.4000357970        1.9906788722       -5.3081177368
 C        -0.0862303156        1.4560677378       -3.8017630937
 C         1.4124114605        0.6843782110       -3.6725623317
 C         1.2568464581       -0.4552009396       -2.5487980801
 C         0.0706532768       -1.3551487577       -2.7361207721
 O        -0.7926376356        1.6466984619       -2.9037818177
 O         2.0732900285       -0.4790729909       -1.6283903576
 C         1.8719120587       -0.1492505039       -4.9637409343
 C         2.3720150966        1.7081930231       -3.1447449603
 C         0.1918238938       -2.7812618134       -1.9164336693
 C         0.3556832204       -2.6456211738       -0.3290628353
 C         1.2861215875       -3.7960427729        0.4548742763
 C         1.5406546854       -3.3681734517        1.8935242853
 C         1.5816993603       -4.4469725766        3.0400203771
 C         0.7374910609       -5.2768217971        0.1637384433
 C         2.7182263839       -3.7936848516       -0.1785703620
 O        -0.1999036589       -1.7787897854        0.3263146962
 O         1.6643904285       -2.2119323896        2.2412256805
 C         2.1668350851       -3.8570473158        4.2799575239
 C         3.6244023836       -3.4334097875        4.0163854671
 C         4.4701500406       -2.5568787256        5.2199713925
 C         4.2271346193       -1.0660979198        4.9656593125
 C         5.5158695101       -0.2247654002        4.7518374615
 O         4.1531841686       -3.7720169330        2.9737814231
 O         3.1070235721       -0.5538197835        5.0620997674
 C         3.7691734192       -2.9025263604        6.5853363790
 C         5.9231789689       -3.0660018875        5.3606528887
 C         5.3017843985        1.1134982047        4.1034332148
 C         4.8014746541        1.2493692906        2.6577605669
 C         4.4540354799        2.6882440750        2.2290907239
 C         2.9055147793        2.7386484972        1.8209479762
 C         2.3047677022        4.0395391004        1.2562652942
 C         4.9978078061        3.7604877967        3.2687236259
 C         5.1714074243        2.9143568211        0.8786610743
 O         4.5761267346        0.3054671441        1.8921340534
 O         2.1532759797        1.7469728251        1.7132110324
 C         1.0964248714        4.6508913545        1.7650810421
 C        -0.0336992655        5.0285211718        0.8158638470
 C        -1.4841700210        5.0290756802        1.2234139788
 C        -1.6690111039        3.3998778294        1.6302885346
 C        -1.8818876572        2.4939953516        0.3318847992
 O         0.1804753254        4.9537759149       -0.3720161961
 O        -1.4559187925        3.0032869773        2.6963263535
 C        -1.8383248229        5.9129866172        2.5331949117
 C        -2.2373588700        5.5455710337       -0.1379409826
 C        -2.5455969728        1.2128647829        0.7860241209
 C        -3.9156664988        1.3929933910        1.2096411569
 C        -4.8160993557        0.1981067908        1.7738611948
 C        -4.6419295922       -1.0870330453        0.7559777250
 C        -5.5507891020       -2.2786437790        0.8855543354
 C        -4.4151142345       -0.2061709541        3.2051070778
 C        -6.2629423698        0.6471719545        1.8584909218
 O        -4.4013821867        2.5182167542        1.2841181852
 O        -3.8804637248       -1.0511142877       -0.1828681327
 C        -5.7170324635       -2.8944777505       -0.5137197381
 C        -4.5718342914       -3.7995145765       -0.9105761378
 C        -4.0197387017       -4.8305114649        0.3514412689
 C        -3.4582140668       -6.1248115473       -0.4748711360
 C        -4.5544225928       -7.1861631851       -0.8314706252
 O        -4.3281007577       -4.1832798352       -2.0653758837
 O        -2.2816960344       -6.4191270162       -0.5504477609
 C        -2.9192503662       -4.2589647572        1.3236938411
 C        -5.1505740192       -5.3211779888        1.2549498229
 H        -3.0946698440        3.1605494957      -10.0725961463
 H        -3.7049982191        1.4439517919       -9.8756078452
 H        -4.8170266619        2.7001711215       -9.8418244204
 H        -1.9724684139        3.5586716155       -4.8783488008
 H        -2.5947231011        2.0433863663       -5.4893089586
 H        -3.6037469942        4.7890634529       -9.4270465166
 H        -2.3611698399        5.5577433070       -8.2470299885
 H        -4.1234124536        5.7891057492       -8.1890045074
 H        -5.1222970798        4.7527087745       -6.4577687076
 H        -4.4401404258        3.6004938008       -5.3208895742
 H        -3.5482402269        5.1822287420       -5.5740376849
 H        -0.5359892908        1.0087281150       -5.8868568067
 H         0.3404921647        2.6816223852       -5.7942607943
 H        -0.8094583502       -0.8536211226       -2.3623748991
 H        -0.1165593818       -1.5906834158       -3.8204979683
 H         2.8009732108       -0.5933211486       -4.7409283758
 H         1.8566589292        0.5854656393       -5.7883693849
 H         1.1932029005       -0.9632396113       -5.1115010453
 H         2.9254580678        1.3263691359       -2.2988182762
 H         3.1109008407        2.0389340940       -3.8657737068
 H         1.8635767713        2.5847626754       -3.0269565656
 H         0.9412307776       -3.5108017984       -2.1979693873
 H        -0.7280036457       -3.4443342092       -2.0785514933
 H         0.5617720863       -4.6360631489        3.3137728354
 H         1.9903117486       -5.4461217580        2.7691143004
 H         1.5585779894       -6.0944780033       -0.0953479637
 H         0.1106321734       -5.2446996044       -0.7994627154
 H        -0.1376271675       -5.6203447967        0.7793123004
 H         3.3148894917       -3.0176001224        0.2559254387
 H         3.1114593831       -4.7843710850       -0.1478991593
 H         2.7301088900       -3.4541882542       -1.1901748534
 H         1.5859079136       -3.0687399309        4.5616933101
 H         2.0268961641       -4.4942727008        5.2082648776
 H         5.9554841113       -0.0614609990        5.7995637523
 H         6.1428564138       -0.7910209246        4.1188491339
 H         3.8670005521       -3.9944386656        6.5315717862
 H         2.7938502516       -2.5771980147        6.6963384371
 H         4.3766314178       -2.6981427568        7.5057008925
 H         6.3485776985       -2.3910356896        6.1143563407
 H         5.9621677929       -4.0660488293        5.8723162652
 H         6.5042396148       -2.9707724672        4.4298827740
 H         6.2284182940        1.6462646671        4.1102637773
 H         4.7487075860        1.7262341983        4.7939564412
 H         3.0393573953        4.7868771598        1.1262810284
 H         2.2720767128        3.8029037612        0.1564913669
 H         4.4569754193        4.5797685511        2.9761836822
 H         6.0230720227        3.9025892660        2.8942785040
 H         4.8264115187        3.3413310615        4.3144327781
 H         4.6818586899        2.1799507601        0.1736324119
 H         4.8867559786        4.0762042386        0.7203866438
 H         6.2447990911        2.6969247518        0.6660218183
 H         0.5782331173        3.8099802159        2.4589636490
 H         1.2930438659        5.4248732222        2.5220562775
 H        -2.5142605762        3.1265578930       -0.2987297612
 H        -0.9331122714        2.2657563820       -0.1302344589
 H        -1.6448978286        5.2685689493        3.3684720739
 H        -2.8422134263        6.4628070375        2.3580121653
 H        -1.1579173679        6.8256653330        2.5991805184
 H        -1.9957125740        4.8890700371       -0.9368047337
 H        -3.3234168589        5.5869442544        0.0637433428
 H        -1.8761117356        6.5666336002       -0.2248482202
 H        -2.0012390593        0.7074546252        1.5838225433
 H        -2.5731929920        0.6224054600       -0.2007043676
 H        -5.1964268554       -2.9455545386        1.6505654930
 H        -6.5186088971       -2.0219281022        1.3053622968
 H        -3.3953732822       -0.4230407471        3.4844416164
 H        -4.9036974543       -1.1778402324        3.2768896381
 H        -4.7922285273        0.4474800696        3.9689327100
 H        -6.3104571827        1.7216927991        1.9769292678
 H        -6.8570144334        0.5284197758        1.0178419613
 H        -6.6510417466        0.1754731962        2.7095161050
 H        -6.5455764446       -3.5422874052       -0.7351903996
 H        -5.7645872991       -2.0959876689       -1.2025064317
 H        -5.1393703407       -6.6243798577       -1.5428192844
 H        -4.0356398678       -7.9838509585       -1.3719256664
 H        -5.1073340662       -7.4238804478        0.0469639492
 H        -2.0516031426       -3.9775983731        0.6708462343
 H        -2.5297932371       -5.1659568169        1.8776009799
 H        -3.1705976465       -3.3228137328        1.7860885242
 H        -6.0741829566       -5.5908570519        0.8533103599
 H        -5.0075031120       -6.3091243286        1.6741582146
 H        -5.1470518810       -4.6556392131        2.0900828684
 Na        1.8814123783       -0.3049726984        0.9007373313
