155

 C        -4.0346946460        2.5235523419       -9.4698003121
 C        -4.0984852028        2.4737582102       -7.9384195218
 C        -3.6418300649        3.6016050424       -6.9386752780
 C        -2.0758055527        3.3720707709       -7.0300457598
 C        -1.5455033310        2.6926857847       -5.7402951137
 C        -4.1029022856        4.9382019635       -7.5813229419
 C        -4.2957097311        3.3632600434       -5.5915642067
 O        -4.5456096265        1.5053858271       -7.3078782005
 O        -1.4566818376        3.6379026529       -8.0359829280
 C        -0.0689328772        2.2722423036       -5.8815961489
 C         0.3151395193        1.5700948399       -4.5580400815
 C         1.5360663226        0.6216855502       -4.3675758886
 C         1.3519126245       -0.0392143621       -2.9657139615
 C         0.0790747085       -0.9743741755       -2.8342553513
 O        -0.4100512453        1.8489392570       -3.5744877469
 O         1.9507035625        0.4447549399       -2.0250863894
 C         1.6253677022       -0.4129912771       -5.4639535941
 C         2.9193927037        1.4487458403       -4.4090440847
 C         0.3583051798       -2.2854329195       -2.1802384693
 C         0.6475916961       -2.0971490705       -0.6867232653
 C         1.5580982392       -3.2407966110        0.0622855044
 C         1.7991768311       -2.7805296204        1.6009129368
 C         1.4813142350       -3.7299856186        2.8223660051
 C         0.6866308868       -4.5172642927        0.0782465811
 C         3.0141641710       -3.6415278311       -0.4017697046
 O         0.0664250037       -1.2311916386       -0.1082094679
 O         2.3329381752       -1.6979755281        1.8318905780
 C         2.3236798076       -3.1502096313        4.0982240662
 C         3.7905847001       -3.4031076165        3.7890081715
 C         4.8150431762       -2.9726403823        5.0027151556
 C         5.0236832882       -1.3902084833        4.7054148464
 C         5.8619888690       -0.9844048082        3.4012483856
 O         4.1386725875       -3.7128497414        2.6912483993
 O         4.5126626469       -0.6636528600        5.5154938008
 C         4.1416458601       -3.3211496443        6.4129661081
 C         6.0535680947       -3.8640272807        4.8714516454
 C         5.8709874212        0.4470415464        3.0240441108
 C         4.7326809854        0.9927945371        2.1944999864
 C         5.0342088725        2.2849488594        1.3354838979
 C         3.5955286830        2.7417235327        0.8599364631
 C         2.8350152208        3.8323909185        1.9266192369
 C         5.8970421310        3.2295046549        2.2880408185
 C         5.9437020999        1.7370365467        0.1672110739
 O         3.6517865933        0.4855317254        2.2039014027
 O         3.0639933284        2.4041275268       -0.1865695168
 C         1.4094143820        3.8629203441        2.2217066022
 C         0.4387024916        4.5914663698        1.3210349571
 C        -1.0887342988        4.4780935494        1.6375775914
 C        -1.4611506329        3.0864574457        2.1335021006
 C        -1.5450715961        1.9113124304        1.1941134593
 O         0.9083155627        5.2383960789        0.4002726592
 O        -1.8344023213        2.8759325112        3.2975529572
 C        -1.3256210408        5.6721202889        2.7196855243
 C        -1.9655730709        4.8560962359        0.3440471104
 C        -2.3025484063        0.6697069570        1.6775104864
 C        -3.8266153509        0.9204071982        1.4071716773
 C        -4.9521083096        0.0211805451        2.2385004476
 C        -5.5381016741       -1.0573273800        1.3620653968
 C        -6.7674351055       -1.8794992467        1.9098852227
 C        -4.2900185112       -0.5379587458        3.5466777237
 C        -6.1487067331        0.9385715989        2.6774751145
 O        -4.2819759653        1.8166416968        0.7806041023
 O        -5.1991039706       -1.1699263044        0.1679592840
 C        -7.3289323194       -3.0493891754        1.0082329210
 C        -6.2344869360       -3.6826759785        0.2088087172
 C        -5.0938396582       -4.5827338710        1.1345713920
 C        -3.8156067566       -5.0645255740        0.2513960620
 C        -4.0438791605       -6.5116299489       -0.4078149842
 O        -6.2585744591       -3.7851810260       -0.9737753986
 O        -2.8131285454       -4.4554324931        0.1370965305
 C        -4.3749941956       -3.8654481282        2.1946020665
 C        -5.9898328922       -5.6189443918        1.6872108108
 H        -5.0127303458        2.3524063743       -9.9292067734
 H        -3.7212291856        3.4810526919       -9.9952700946
 H        -3.5001579237        1.5933312079       -9.9239382179
 H        -1.5099444039        3.4479438653       -4.9714496386
 H        -2.2226583288        1.9063780500       -5.4171402965
 H        -4.0002972885        5.0440836550       -8.6977725926
 H        -3.4974279723        5.6730748557       -7.1835113492
 H        -5.1336850028        4.9503134437       -7.4910972730
 H        -5.3767791522        3.6156149569       -5.8225816779
 H        -4.2073942922        2.3928927806       -5.0405422434
 H        -4.0917616126        4.0991020644       -4.8822415622
 H         0.2510412436        1.6073445398       -6.6755463569
 H         0.5347246354        3.1468305362       -6.0771827504
 H        -0.6978023080       -0.4860125304       -2.2102671651
 H        -0.4198452844       -1.2361397734       -3.7587585412
 H         2.5323830616       -1.0108392238       -5.4205355855
 H         1.6506833457        0.0169781252       -6.5115548382
 H         0.7100927972       -0.9940676402       -5.4019510264
 H         3.2462522037        1.5991317984       -5.4491647414
 H         2.7028370039        2.3417082502       -3.7774966225
 H         3.8016764320        0.9380893914       -3.8847206822
 H         1.2037452578       -2.8098901044       -2.5640746045
 H        -0.5537961863       -2.9867217184       -2.2481290776
 H         0.4002518019       -3.7590707530        3.0012771962
 H         1.8480435646       -4.6986774464        2.5469056753
 H         1.0787919806       -5.3999538443        0.4745454827
 H         0.3180924822       -4.7579899773       -0.9686235937
 H        -0.1504014352       -4.2761770163        0.7976203682
 H         3.8013745282       -3.0229194533        0.0244874310
 H         3.3416522287       -4.5485719414        0.1472682953
 H         3.0270116200       -3.8523608573       -1.4789247189
 H         2.2163822855       -2.0991251691        4.2015812190
 H         2.0834512745       -3.7082068998        5.0679315504
 H         6.9028077158       -1.3248178768        3.6543307677
 H         5.5798611173       -1.6659609505        2.6250896890
 H         3.9818289757       -4.4029463922        6.3972572228
 H         3.1137394981       -2.9822906456        6.6930007031
 H         4.8623684245       -2.9930747459        7.2146051695
 H         6.8491323746       -3.5220315904        5.5164956118
 H         5.7644040121       -4.9009274923        5.1144736537
 H         6.4028157631       -3.8020841419        3.8598185665
 H         6.8142873938        0.7774609731        2.5598586726
 H         5.9046353858        0.9614309741        4.0152640341
 H         3.4065668347        3.8495930000        2.7666383603
 H         3.0912378695        4.7047391036        1.3109762405
 H         5.7291024316        4.3318763985        2.0557143670
 H         6.9475906259        2.9505692234        2.0373482635
 H         5.7081293712        2.9551972962        3.2703431754
 H         5.2692122641        1.2928353417       -0.5372440249
 H         6.2346542448        2.4990154064       -0.4321021578
 H         6.8603557085        1.1681645859        0.4332343079
 H         1.0639015055        2.7545922884        2.3480409872
 H         1.2470288628        4.3682879152        3.2415287494
 H        -1.7443720051        2.3341048377        0.1558152349
 H        -0.4482224298        1.6476155215        1.1012336443
 H        -0.9528385422        5.3752656164        3.7612192407
 H        -2.3140241008        6.0874430147        2.7419781098
 H        -0.6366732196        6.4845453416        2.5407522281
 H        -2.0220459883        4.1748128235       -0.4577544610
 H        -2.9674064820        5.1215358132        0.7373477623
 H        -1.4705344423        5.7222557694       -0.0964246875
 H        -2.0698277728        0.4686013029        2.7238947351
 H        -1.9290644780       -0.3288270489        1.1868420986
 H        -6.4547077493       -2.2344510843        2.8822233176
 H        -7.5926793541       -1.1779687615        1.9929716057
 H        -3.6854619441       -1.4616636063        3.4235613492
 H        -5.1121406753       -0.6947253934        4.2818201144
 H        -3.6500685403        0.1922135134        4.0912868659
 H        -5.7626815813        1.7393587814        3.2609215602
 H        -6.8154956938        1.1396460909        1.7983188240
 H        -6.8561513331        0.4495043772        3.4410875146
 H        -7.7694682577       -3.8844334932        1.6104290462
 H        -8.0319804453       -2.6961384363        0.2371203431
 H        -5.0440361627       -6.3373714421       -0.9038604419
 H        -3.2343241938       -6.4362219653       -1.0839363311
 H        -3.9350709940       -7.3352276239        0.2959475078
 H        -3.8115322144       -3.0816443817        1.7040075350
 H        -3.6933467959       -4.5409401044        2.6541027628
 H        -4.8519105462       -3.6540092166        3.0983523758
 H        -6.8110203544       -5.7033033676        1.0298446603
 H        -5.4502320948       -6.5499323093        2.0703221745
 H        -6.5460048431       -5.3460611067        2.6356745885
 Na        2.3090014336        0.0158136938        0.3602993820
