155

 C        -4.1347406056        2.3003876176       -9.6476560050
 C        -4.5444779412        2.3246592973       -8.1425900196
 C        -4.0406763651        3.5601567194       -7.1740084574
 C        -2.5769067706        3.2155473024       -6.9133250528
 C        -2.0102527517        2.4777666669       -5.6204016149
 C        -4.2059440912        4.9437072319       -7.8288426964
 C        -4.7891041942        3.6177856344       -5.8438762239
 O        -5.1510393849        1.3654133292       -7.7266632716
 O        -1.7836790626        3.7051118955       -7.7272362732
 C        -0.6941988485        1.7896980996       -5.8193537777
 C         0.4282830847        1.8015975011       -4.6539657492
 C         1.5935595116        0.7565251085       -4.9244202256
 C         1.7036821844       -0.0201987899       -3.4243843043
 C         0.3070836208       -0.4325294352       -2.8836788962
 O         0.3138720965        2.3853541282       -3.6463710943
 O         2.6651430029       -0.4842668977       -2.8369872620
 C         1.4621930978       -0.3389666104       -5.9369482306
 C         2.9258825538        1.5623538536       -5.2507417186
 C         0.4420573299       -1.8817634762       -2.2769915249
 C         0.8302833353       -1.7870117139       -0.8229422445
 C         1.5405658230       -3.0223977047       -0.0120398257
 C         1.9098739341       -2.4621586653        1.3430383237
 C         1.5724030954       -3.3647042684        2.5159291494
 C         0.5586969293       -4.1950576213        0.0609429848
 C         2.8690114899       -3.4909401424       -0.5974909565
 O         0.2949007032       -0.8817116196       -0.1504428787
 O         2.5236563597       -1.4604434664        1.5046320721
 C         2.4747391283       -2.9601728667        3.6992259924
 C         3.9535879523       -3.5537446989        3.5860066989
 C         4.9007089357       -3.0301717118        4.5437568730
 C         5.5986508462       -1.6333340497        4.1023403009
 C         6.0377321367       -1.5098104693        2.6747760764
 O         4.2404316559       -4.0803688529        2.5379179352
 O         6.0036351965       -1.0567666568        5.0750130253
 C         4.3337814820       -2.9605648995        6.0357922355
 C         6.1571538072       -3.9340031837        4.3760740968
 C         6.3857800738       -0.0336514328        2.4724002737
 C         5.1254848398        0.8529837844        2.1481852826
 C         5.1809336642        2.0153294512        1.0844558382
 C         3.8033758231        2.9126418712        1.0506701651
 C         3.3714386315        3.7757468764        2.3832827551
 C         6.3419459271        3.0367732831        1.2135727403
 C         5.4473306216        1.3764893728       -0.3166611068
 O         4.0324016361        0.4634276925        2.4489515867
 O         3.0175187215        2.7214966758        0.1344548665
 C         1.8044599595        3.3140702834        2.5740194313
 C         0.9407601176        4.0359635125        1.6061900895
 C        -0.6757061589        4.1977628196        1.8712475633
 C        -1.2446965265        2.7884825884        2.5735919458
 C        -1.5097455283        1.5389577659        1.5080309992
 O         1.4296067086        4.7221855974        0.7078022521
 O        -1.3883872652        2.6100362014        3.7145596101
 C        -0.8927320435        5.3342057720        2.9269517161
 C        -1.3974835298        4.6711131717        0.5609294557
 C        -2.4200747741        0.3894717621        1.8274670558
 C        -3.8740512331        0.7777941819        1.5087964258
 C        -5.1027512169        0.2902609881        2.5523177449
 C        -5.9219475012       -0.7960350464        1.8433044037
 C        -6.8133477632       -1.6785048686        2.7700121844
 C        -4.5733598795       -0.0501308427        4.0218332776
 C        -6.0133836964        1.5124614810        2.6146736574
 O        -4.2279156874        1.4685400068        0.5494653353
 O        -5.7565410404       -1.1240530598        0.6647089897
 C        -7.6872276645       -2.6860088160        2.1095448517
 C        -7.0136036755       -3.8068863320        1.2851350005
 C        -5.8096871563       -4.7589278539        1.7275118036
 C        -4.4917811183       -4.2837520452        0.8951676515
 C        -4.5126224314       -4.7185577401       -0.6383849124
 O        -7.5623027903       -4.0585786403        0.2180390091
 O        -3.5142169855       -3.7032649488        1.4222961620
 C        -5.4648679812       -4.4218311583        3.1244035496
 C        -6.1476691676       -6.2148808456        1.2782561527
 H        -2.9659049849        2.3119072993       -9.6138093116
 H        -4.5435778528        1.3345913340       -9.9981609342
 H        -4.4745644059        3.1282847316      -10.3232571725
 H        -2.0149806851        3.2881507751       -4.8812842854
 H        -2.9011038260        1.8790023845       -5.4758953341
 H        -3.3868992141        5.6329990056       -7.6059480461
 H        -5.1175870823        5.3942879118       -7.4472940409
 H        -4.3905158002        4.6893144549       -8.8363334482
 H        -5.8826811196        3.7887703176       -6.1818553502
 H        -4.9801352218        2.6802197416       -5.4201927054
 H        -4.4709475432        4.1911730894       -4.9509653749
 H        -0.9065028720        0.7135202385       -6.1439362443
 H        -0.3328753122        2.1766021470       -6.8091527747
 H        -0.0527956309        0.2076223262       -2.0981764279
 H        -0.4705371989       -0.5341716509       -3.6817455611
 H         2.3799726043       -0.9535990739       -5.8912046811
 H         1.3799373449        0.0732548222       -6.9627842870
 H         0.6745968507       -1.1161723881       -5.8101453575
 H         2.7668091386        2.6752727991       -5.1625858250
 H         3.7436787063        1.0358279420       -4.5929990480
 H         3.1777068387        1.3681733691       -6.3070639750
 H         1.1941966491       -2.5995554240       -2.7481913554
 H        -0.5634200133       -2.1901796881       -2.0910297187
 H         0.5436789744       -3.2587386959        2.6916296627
 H         1.7085377162       -4.4792046922        2.2095735045
 H         0.9833326434       -5.1494086725        0.4394890961
 H         0.1264160925       -4.2360847511       -1.0365200780
 H        -0.3936775587       -3.9776832038        0.7432494014
 H         3.6168591943       -2.6721866797       -0.5599785617
 H         3.2409788562       -4.4435262699       -0.2343806538
 H         2.7408643590       -3.6004152378       -1.6776475834
 H         2.6953385618       -1.9181406254        3.6039777707
 H         1.9860269185       -3.2390118362        4.6146800842
 H         6.9577910130       -2.0926840072        2.5173670571
 H         5.3000595837       -1.9805270881        1.9734771617
 H         4.0624593129       -3.9989189044        6.3976919129
 H         3.4709778555       -2.3399157645        6.0148741994
 H         5.0422999431       -2.6728837853        6.8445868057
 H         6.9832097216       -3.4613398622        4.8158096320
 H         6.1242264995       -4.8970065588        4.8351530285
 H         6.2392767283       -4.1397149152        3.3248144952
 H         7.0778520520        0.0964627151        1.6550031468
 H         6.8441150734        0.3335480379        3.3606330779
 H         3.9925228293        3.5258588122        3.2625818644
 H         3.3033734083        4.8721219271        2.0879017969
 H         6.7490152815        3.3405174053        0.2775783705
 H         7.2196208471        2.7540567946        1.8378428660
 H         5.9850773086        3.9620807351        1.7009937901
 H         4.5461650386        0.6908313124       -0.4339869608
 H         5.6278017168        2.1795622196       -1.0648253383
 H         6.4512693756        0.7423081140       -0.4128988294
 H         1.7326231871        2.1995863774        2.6232611269
 H         1.4918192959        3.6875156983        3.4630088325
 H        -1.9375740542        1.8723839568        0.5660935549
 H        -0.4515962547        1.1657053849        1.2721139408
 H        -0.7724286671        5.1171965802        3.9228836565
 H        -1.9830768279        5.5182889049        3.0642966155
 H        -0.5020764672        6.2260694924        2.4524459472
 H        -1.3362502852        3.9876562230       -0.2464951210
 H        -2.5016745928        4.8991808181        0.6774280923
 H        -0.8880364365        5.6177527799        0.2955416063
 H        -2.1147949331        0.0198154190        2.8731488486
 H        -2.1542662346       -0.5591593943        1.3475119819
 H        -6.0935266819       -2.1787915674        3.3764136343
 H        -7.3858961209       -1.0520511608        3.4055507075
 H        -4.2628969378       -1.1082276583        4.1225022268
 H        -5.3186605700        0.1770767236        4.7848470094
 H        -3.6801430261        0.5642873242        4.0673468909
 H        -5.3455058599        2.4064498102        2.6970484445
 H        -6.4472040839        1.7074047759        1.6112618788
 H        -6.8209221452        1.3488479952        3.3694240970
 H        -8.1966339638       -3.2193462752        2.9005219846
 H        -8.4545935800       -2.3310590399        1.4611978879
 H        -5.5222967338       -4.7439985755       -1.0433930526
 H        -3.8345516484       -4.0039593321       -1.2309794999
 H        -4.0805947616       -5.7104973499       -0.5409580479
 H        -4.7069504665       -3.6269517501        3.1343050553
 H        -4.8390976281       -5.1532934599        3.6818887514
 H        -6.3128373769       -4.0243643606        3.6590498842
 H        -6.6030570612       -6.1896349952        0.3506827223
 H        -5.2009805858       -6.7470757130        1.0475595814
 H        -6.6415855354       -6.7173314503        2.1347043382
 Na        2.5176158262        0.1978416395        0.1120663316
