155

 C         7.3378621986       -5.8047122779        7.7941640626
 C         5.9127338963       -6.3206218143        7.5139314295
 C         4.7300903772       -5.8476511824        8.5418952448
 C         4.5977991773       -4.3062856769        8.2025253875
 C         3.9729294577       -4.0506653167        6.8307410716
 C         3.4509160030       -6.5088395632        8.0938560772
 C         5.2983746111       -6.2718914721        9.9579320204
 O         5.7081576642       -7.0273097496        6.5626319899
 O         5.2757464134       -3.4601780079        8.7868041933
 C         3.4489457771       -2.6022871267        6.9254873632
 C         2.9062828925       -1.9139243644        5.6245018372
 C         2.4907780335       -0.3548349926        5.7169421586
 C         1.1950114769       -0.0702240678        4.8454056689
 C         1.3632157574       -0.1867388812        3.2846725496
 O         2.6811642370       -2.5099000299        4.5960769719
 O         0.1703890653        0.3192127657        5.3507481350
 C         2.2475926466        0.1505226404        7.1699332366
 C         3.7511963142        0.3509939853        5.0430588626
 C        -0.0672131948       -0.1679468974        2.6818091399
 C        -0.3249749121        0.4942675773        1.3849325341
 C        -0.1151028627        2.0616627489        1.1253048304
 C         0.9645712972        2.3184942983       -0.0598631088
 C         2.0486219899        3.3091809476        0.1399726735
 C        -1.4388217130        2.5411397311        0.4818760998
 C         0.1064595642        2.8569748668        2.4352360682
 O        -0.7918546168       -0.1657417959        0.4796769950
 O         0.8145702733        1.6343406726       -1.1076387251
 C         3.3451316837        2.9992286963       -0.5169315341
 C         3.9849039338        1.8203866266        0.2232411150
 C         5.2902814633        1.2331217737       -0.4914470525
 C         4.8560425836       -0.0782223922       -1.2278593085
 C         4.6239017908       -1.4246092498       -0.4682214434
 O         3.5179825398        1.4449388253        1.2977993260
 O         4.6141218065        0.0256782273       -2.4130299892
 C         5.9340962516        2.2442293296       -1.4316056938
 C         6.2994274434        0.9514128936        0.7369740828
 C         3.9786701716       -2.5393702919       -1.3040525257
 C         2.5590734498       -2.2389895867       -1.7269966726
 C         1.6162471544       -3.5246636377       -1.9245995272
 C         0.2471725063       -3.1247731869       -2.6901454060
 C         0.2830678312       -3.1284883213       -4.2963750271
 C         2.4108614941       -4.4632521640       -2.8119428768
 C         1.2156697136       -4.0898733170       -0.5064336168
 O         2.1786799703       -1.0717620522       -1.6107100086
 O        -0.7963202035       -2.8575294524       -2.0781302823
 C        -0.9528081556       -2.5209379773       -4.9381909628
 C        -1.0107996488       -0.9892160396       -4.8154617587
 C        -2.3818554418       -0.2672298698       -5.2799874755
 C        -3.2012462942        0.1081850383       -4.0219211646
 C        -4.7179546255        0.2562628932       -4.2241543509
 O        -0.0732506180       -0.3651929419       -4.3078802294
 O        -2.6948967089        0.1568021036       -2.9285459406
 C        -1.8834148821        1.0613575619       -5.9509348965
 C        -3.1730915616       -1.1558133012       -6.3230076180
 C        -5.3584609900        0.9358817112       -3.0043627813
 C        -6.8577137800        0.7784884741       -2.9875017618
 C        -7.7901302132        1.2266998142       -1.8829541323
 C        -7.4988034499        2.7792146889       -1.8331328821
 C        -7.9606753825        3.5927215918       -3.1074738088
 C        -9.2568294874        0.8418360369       -2.1457518471
 C        -7.4514480786        0.5328579090       -0.5140975638
 O        -7.4023632694        0.3705514950       -3.9801717672
 O        -7.0948541271        3.3174909463       -0.8365158603
 C        -7.4848581870        5.0220247780       -3.1018566385
 C        -6.1687484160        5.0534471836       -4.0156123963
 C        -5.9947949680        6.0183765300       -5.2699570829
 C        -6.6207360625        5.2022317081       -6.4090504971
 C        -5.8633438896        4.9292286026       -7.6538083234
 O        -5.2060122178        4.3401912058       -3.7051046101
 O        -7.7747268038        4.7875739531       -6.3955445509
 C        -6.8115327868        7.2760764431       -5.1289431898
 C        -4.5490902412        6.4890096741       -5.4141102212
 H         7.6943763250       -5.6017086789        8.8426723863
 H         8.0630419532       -6.4961327610        7.4207250277
 H         7.4704771972       -4.8388399225        7.3332044574
 H         4.6604380277       -4.1246004194        6.0126247371
 H         3.0983450985       -4.6180473678        6.6056299961
 H         3.3198769112       -6.5912538930        7.0149077514
 H         2.4349011842       -6.1743487643        8.5035732217
 H         3.4422792243       -7.5171179874        8.4562713744
 H         6.1033367150       -5.7337465924       10.2539565061
 H         4.5641579337       -6.1829503630       10.8047809021
 H         5.7241364379       -7.2618464434        9.9820377492
 H         2.6988111547       -2.6755670630        7.6961941838
 H         4.1868954126       -1.9090925051        7.3126575527
 H         2.0267706856        0.5065036758        2.8090266246
 H         1.8454281102       -1.1464161370        2.9542245577
 H         2.0895719198        1.2668511730        7.1211311575
 H         3.0811049401       -0.0746156681        7.8826434796
 H         1.2660741446       -0.2756126959        7.4924367343
 H         4.4987206607        0.2697194650        5.7756306241
 H         4.2185203637       -0.1175722100        4.1874020139
 H         3.6486776781        1.3960241084        4.8394350735
 H        -0.6846158446        0.4458637785        3.3881742726
 H        -0.4564458429       -1.1167790401        2.5852097968
 H         1.7451916456        4.2837409411       -0.1949353512
 H         2.3639319537        3.3504672651        1.1962709369
 H        -1.5766516123        2.0701203927       -0.5055820121
 H        -1.4375834565        3.5646473437        0.3198021117
 H        -2.3176270363        2.2209343674        0.9975715192
 H        -0.3619835665        2.3559735833        3.2791087832
 H         1.1170330519        2.9988622087        2.6453493974
 H        -0.2663971591        3.8494038823        2.4868405830
 H         3.1010094966        2.6462344549       -1.5387893885
 H         4.0146773212        3.8528593540       -0.5743667653
 H         5.4841653316       -1.7432685596        0.1532337491
 H         3.9289644075       -1.0830817023        0.3132790794
 H         7.0142801762        2.2871555494       -1.2126484969
 H         5.5039513853        3.2832588945       -1.3217846900
 H         5.7934479925        2.1611651393       -2.5056899938
 H         6.8320584516        1.8149810759        1.0481247680
 H         5.6479144620        0.5867834076        1.5388707560
 H         7.0253174733        0.1323973561        0.4752558691
 H         3.9959983840       -3.4688949514       -0.7763615891
 H         4.5327553018       -2.7011517093       -2.2181505319
 H         1.1986909417       -2.6109410885       -4.5901710108
 H         0.3104189310       -4.1400521363       -4.7730954393
 H         2.6603437276       -4.0516889499       -3.7643074333
 H         1.9894936290       -5.5118229324       -2.9968327852
 H         3.3873374703       -4.6222892680       -2.2663026602
 H         0.5545392788       -4.9355001800       -0.5023916256
 H         2.1566474373       -4.4361028525       -0.1053778296
 H         0.7473788816       -3.2280853387       -0.0299655015
 H        -0.8934156270       -2.7492100208       -6.0338427807
 H        -1.9397186138       -2.7787359707       -4.5053253587
 H        -4.9370769597        0.7995865119       -5.0669597799
 H        -5.2150835043       -0.7011775130       -4.4636153886
 H        -2.7807259547        1.4662759398       -6.2692935599
 H        -1.2499825514        0.8304858011       -6.8029430187
 H        -1.3620832128        1.6285203935       -5.2508304224
 H        -3.9497837348       -0.7208629241       -6.8692592850
 H        -2.4637437829       -1.5322481435       -7.0852796940
 H        -3.7781428947       -1.9871402150       -5.9161647020
 H        -5.1513855821        2.0493551432       -2.9501970971
 H        -4.8428883609        0.5159539245       -2.1558866762
 H        -7.6982382569        3.0663318141       -4.0102396630
 H        -9.0549127726        3.4745193519       -3.1086664050
 H        -9.4377553656       -0.1751320690       -2.0448318879
 H        -9.9010686137        1.1291513890       -2.9988054145
 H        -9.8124530530        1.3133180959       -1.2593572322
 H        -6.4565183093        0.3578312486       -0.3219120420
 H        -7.7131973545        1.2881979342        0.2122545897
 H        -8.0058616344       -0.3474104219       -0.2799445189
 H        -8.2067159422        5.7686098491       -3.4717538280
 H        -7.3199768888        5.4028918979       -2.1055803305
 H        -4.8179312131        4.9209633368       -7.7383352231
 H        -6.2520703066        4.0379494235       -8.1408106374
 H        -6.1248784124        5.7461896303       -8.2965885663
 H        -7.8293524902        7.1344060773       -5.4258835457
 H        -6.4602319867        7.9811122393       -5.9208014760
 H        -6.8688057220        7.6318222662       -4.1031343307
 H        -4.5520220946        7.3568112392       -6.0541215894
 H        -4.1011254356        6.8697286657       -4.4768458651
 H        -3.9311670083        5.7530562912       -5.9140612516
 Na       -0.1918961547       -0.2978276821       -1.9170906609
