155

 C        -5.3777053124        1.4169633941       -9.3011227679
 C        -5.0605023995        2.6850475384       -8.2607093628
 C        -3.5683829909        3.1300287721       -8.0928710382
 C        -2.6631058167        2.4984761765       -7.0732067631
 C        -3.1990373904        1.3067785342       -6.1280622947
 C        -2.7663414108        3.1635444379       -9.5189917693
 C        -3.6344155562        4.7900212162       -7.5732559077
 O        -5.9854032328        3.2578255924       -7.7250165220
 O        -1.4575488855        2.7255267985       -7.1042525445
 C        -2.5784316485        1.4481344373       -4.6185917070
 C        -1.6308875956        0.3982421337       -4.1676039892
 C        -0.0603052089        0.8345473914       -3.5041570199
 C         0.5539276440       -0.1950899440       -2.6522277665
 C         0.9370933586       -1.5872651955       -3.2273353592
 O        -1.8500765033       -0.7673347882       -4.2566437174
 O         0.6714098467        0.0714109177       -1.5103827917
 C         0.8804997860        1.0901080062       -4.8314747315
 C        -0.1592300488        2.2103997530       -2.7197407661
 C         1.4859634691       -2.5163983184       -2.1363681122
 C         0.4389455307       -2.7816743349       -1.0028100961
 C         0.7832047540       -4.0486322953        0.1339246507
 C         2.0196829364       -3.6548372778        0.9660000780
 C         3.2042775595       -4.6021698544        1.2808831048
 C        -0.4770518198       -4.1362177123        1.0133746457
 C         1.0310203008       -5.2553211053       -0.8926743674
 O        -0.6846609921       -2.3406359235       -0.9896097959
 O         2.0365571994       -2.4852815991        1.4562249147
 C         4.5253067713       -4.0687311783        0.8396146407
 C         5.2308115642       -4.5263660375       -0.3684748431
 C         6.8409335070       -4.3229744052       -0.4421929288
 C         6.9399058606       -2.8639909553       -0.9972060197
 C         5.7884809723       -2.3551883311       -1.8828861620
 O         4.6455642190       -5.2135242560       -1.1681548515
 O         7.8625956828       -2.0740453543       -0.7376886971
 C         7.5060582255       -4.4919834537        0.8830090790
 C         7.4770251784       -5.2109454473       -1.5749235212
 C         5.7435221537       -0.8199990747       -1.6872297084
 C         4.7556265977       -0.1489173339       -0.7340744757
 C         5.0699576674        1.3752332280       -0.1799095526
 C         4.0364243598        1.9326345144        0.9615161203
 C         4.0658914555        3.4481700741        1.2169985019
 C         6.4058108415        1.5121291649        0.3909961889
 C         4.9159854104        2.4694691508       -1.3320015214
 O         3.8676249386       -0.8061591872       -0.2371187753
 O         3.4917574665        1.2808400811        1.7920460824
 C         2.9318808383        3.9036742460        2.1521445465
 C         1.5595104249        4.4153053153        1.6308112205
 C         0.3770444727        3.9444107606        2.4206635527
 C         0.1476523212        2.4086041194        2.4334996117
 C        -0.0796089039        1.4256832460        3.5712894162
 O         1.4395315120        5.2763717800        0.8853368659
 O         0.4017953534        1.7353026222        1.3792927233
 C         0.4671471519        4.6215915033        3.8964048660
 C        -0.9597729667        4.4357446984        1.7650176721
 C        -1.1494241548        1.7388149484        4.6337537275
 C        -2.6737234033        1.3917713514        4.0115385536
 C        -3.8420206914        2.1962413187        4.6249866829
 C        -5.1479389023        1.5657360116        5.3807507478
 C        -5.4111412916       -0.0076302792        5.2722437833
 C        -3.2997020472        3.4016096192        5.4807165710
 C        -4.4738859084        2.9154738915        3.3031870819
 O        -2.7142110740        0.7350421148        2.9612238406
 O        -5.8663292852        2.3602426225        5.9077109889
 C        -6.7483792481       -0.5264076982        5.8532158383
 C        -7.0746481336       -1.9472421801        5.4728195959
 C        -7.7594221759       -2.2506897117        4.1173816080
 C        -6.7207497249       -2.6771129498        3.0245007828
 C        -7.3178803802       -2.9813850822        1.6419042914
 O        -6.7817796272       -2.8999183195        6.1390852490
 O        -5.4905958119       -2.6938733665        3.1862581100
 C        -8.8449468678       -3.4500817140        4.4292245691
 C        -8.6852970215       -1.0459666712        3.6722148706
 H        -6.0562291566        1.8569230924      -10.0760593292
 H        -4.5350033292        1.0041087606       -9.5589875291
 H        -5.8009255637        0.5371224270       -8.6903842954
 H        -4.3349500793        1.4424570649       -6.0768428755
 H        -2.9842826274        0.3447272441       -6.6025948456
 H        -2.1117810866        3.9865788851       -9.4919816617
 H        -3.5096594023        3.2988185859      -10.2745112509
 H        -2.3149140580        2.2707507815       -9.8313461245
 H        -3.9155019051        5.2655212594       -8.4423221555
 H        -4.4044432551        4.8851563303       -6.7406159955
 H        -2.6528738592        4.9795509693       -7.1155933700
 H        -1.9985298010        2.4020050489       -4.6036617406
 H        -3.4073039380        1.5833076301       -3.9429902693
 H        -0.0121805668       -1.9310590360       -3.5884371803
 H         1.5730009590       -1.5038119839       -4.1353277349
 H         1.7874028857        1.5290308884       -4.3901706530
 H         0.4485444742        1.8604908212       -5.4606836843
 H         0.9969020380        0.1413434443       -5.3445027099
 H        -0.3543762879        2.0593601146       -1.6677109089
 H         0.8226727511        2.6785711123       -2.7123271401
 H        -0.6237218860        3.0180412498       -3.3379215343
 H         2.3998132065       -2.0172268163       -1.6944872760
 H         1.9180974411       -3.4377328157       -2.4822188791
 H         3.1715131885       -4.6652139126        2.3546486136
 H         3.0163523495       -5.6370577117        0.7999225103
 H        -0.3601909423       -4.8074602896        1.7534904694
 H        -1.3228801137       -4.5419682232        0.5280830526
 H        -0.8324879225       -3.1842068700        1.2592401347
 H         2.0668525347       -5.0712452037       -1.2924704260
 H         0.8666954527       -6.1875662067       -0.3280713793
 H         0.3256639453       -5.2318907812       -1.7461621970
 H         4.2766900660       -2.9778464551        0.6800593693
 H         5.1244288767       -3.8598060018        1.7207232167
 H         5.5898687468       -2.6497079823       -2.8973104981
 H         4.8559981875       -2.7382531154       -1.4494015202
 H         8.5569335750       -4.2254655427        0.7340077247
 H         7.5469698653       -5.5495444231        1.1134810954
 H         6.9405587811       -4.0622924390        1.7189344686
 H         8.0074155339       -4.6038340593       -2.3249315140
 H         8.1321436772       -6.0306573035       -1.2673741532
 H         6.5889793397       -5.6077146611       -2.0749396892
 H         5.6873921744       -0.3041966743       -2.6738804280
 H         6.7179546732       -0.4247821996       -1.4156545314
 H         4.9067740318        3.5185899064        1.7389201301
 H         4.1271013862        4.0224617090        0.2914800306
 H         6.5778467226        0.8888034514        1.2978546793
 H         6.4570657535        2.5829243822        0.5550084152
 H         7.2176862004        1.1717380909       -0.2800160011
 H         5.5792339563        3.2772858782       -1.0553688374
 H         5.1411853078        2.0291278108       -2.3043595755
 H         3.9958569894        2.9473872253       -1.5455790842
 H         2.6860518242        3.0523706306        2.8490327738
 H         3.3195138853        4.7393311380        2.6871597184
 H        -0.0974728568        0.5015726704        2.9819901678
 H         0.8662183283        1.4204476852        4.0784274629
 H         1.2644178161        4.0078965638        4.3649114816
 H        -0.4774076084        4.6878329447        4.3388022661
 H         0.5717576183        5.7076155985        3.7137682584
 H        -0.9995055512        4.4184022118        0.6919508035
 H        -1.8053976754        3.7704554559        2.1035948058
 H        -1.1577776619        5.4369583770        2.1285330678
 H        -0.9933431975        2.7705342807        4.8801389098
 H        -1.0919734125        1.2427968897        5.5937002031
 H        -5.1642620407       -0.3199627638        4.2307348822
 H        -4.5855069771       -0.4951421878        5.9325348936
 H        -2.6866497055        3.1354855537        6.3207215464
 H        -4.1618496099        3.9112294283        5.9427265911
 H        -2.7037486307        4.0746881471        4.8952713741
 H        -3.7385549285        3.2165536243        2.4667181904
 H        -5.2391200863        2.2833329618        2.7252098878
 H        -5.0037124273        3.8435978336        3.6924953088
 H        -6.7326600750       -0.2507362213        6.9032964477
 H        -7.5092876375        0.1006313108        5.4833611096
 H        -7.2374204558       -1.9686511098        1.2579794347
 H        -6.6162419327       -3.6116330466        1.0331763213
 H        -8.2958088516       -3.4132321304        1.4635817755
 H        -8.2982114986       -4.3862988512        4.3858159803
 H        -9.5806276277       -3.5348612018        3.6082051472
 H        -9.3245407695       -3.2023786283        5.3667372196
 H        -8.2177803064       -0.0121502245        3.4510462949
 H        -9.0452082611       -1.2928238116        2.7258673910
 H        -9.5008708643       -0.7842134460        4.2619987690
 Na        1.7589974177       -0.1467040341        0.6584551025
