155

 C        -4.3758696643        0.8027713192       -9.2640718913
 C        -4.1680114164        2.0051812988       -8.3333462475
 C        -2.7784532394        2.1994073775       -7.4615174703
 C        -3.0390828211        2.4527327172       -5.8882383538
 C        -4.0665255265        1.4121648854       -5.2861710128
 C        -1.8124469889        1.0331316691       -7.5875260288
 C        -2.0195770997        3.4139276336       -7.9851533099
 O        -5.0759598334        2.7738470339       -8.0217286445
 O        -2.3824358282        3.2578934591       -5.3049711117
 C        -3.5654076143        0.9070118015       -3.9435751377
 C        -2.0154963096        0.4483626002       -4.2539101271
 C        -0.6596904023        0.9264416289       -3.3154403274
 C        -0.2549379602       -0.1332652782       -2.3121169861
 C        -0.2158319091       -1.5675393144       -2.9028477784
 O        -1.7134368799       -0.2850207291       -5.1783489180
 O        -0.1377733401        0.0086178143       -1.1122561991
 C         0.4470610591        1.3392381658       -4.3003003548
 C        -0.7516095095        2.2526347815       -2.5326796163
 C         0.7745060574       -2.4973568726       -2.1686509549
 C         0.1207438031       -3.2016311287       -0.9446448598
 C         0.9547492005       -4.1203988780        0.0477619648
 C         2.3267068477       -3.5650161877        0.4698616576
 C         3.3685772097       -4.5275077939        1.1032408045
 C         0.1688793183       -4.2979951186        1.3442714502
 C         1.0429732967       -5.5142755679       -0.5896284706
 O        -1.0710750036       -3.0741693459       -0.8035723193
 O         2.5756795657       -2.3153128880        0.3742148722
 C         4.7381595774       -4.8796516253        0.1563925191
 C         4.5460824144       -4.4130616853       -1.2699032321
 C         5.8267995258       -4.5310294307       -2.2702641146
 C         6.2028701099       -3.0749906280       -2.8334948834
 C         5.1623856119       -1.8326741688       -2.6943654724
 O         3.4503200367       -4.1523219208       -1.6236027760
 O         7.2347935538       -2.9747687239       -3.4962619421
 C         7.1601083513       -5.2988860287       -1.6232416897
 C         5.4255858585       -5.4025143248       -3.5761432181
 C         5.7704850511       -0.6203883592       -2.0218502984
 C         4.7337788363        0.4475603851       -1.8300341008
 C         5.1629192419        1.9082552739       -1.1850931786
 C         4.0415820440        2.1721130523       -0.0445841905
 C         4.0987452863        3.5596118228        0.6756588768
 C         6.5969057077        2.1401935964       -0.5531097336
 C         4.9826858593        2.9434024674       -2.2887833166
 O         3.6359607155        0.2377343985       -2.2266624068
 O         3.3695740835        1.2632806477        0.2726491982
 C         3.3067328916        3.5968254776        2.0485353967
 C         1.8846463291        3.1620395941        2.0054656427
 C         0.8702280227        3.3418029304        3.0838768775
 C         0.8049759769        1.7879144600        3.5774487346
 C         0.5433702111        1.6201064065        5.0409559293
 O         1.4069195229        2.7764845588        0.8926459675
 O         1.4443684687        1.0057832249        2.8947159966
 C         1.2644792783        4.2613254225        4.2094284332
 C        -0.4025520000        3.8161736779        2.4842345912
 C        -0.8154596261        2.0352945376        5.5685382202
 C        -1.9756731458        2.1482200968        4.4848969317
 C        -3.3655060667        2.6896394041        5.0303666169
 C        -4.0482376916        1.5871831993        6.1821928712
 C        -4.5471716588        0.2883840873        5.6888662515
 C        -3.2083698892        4.1081375884        5.6546200361
 C        -4.3461599462        2.6358828182        3.8372844600
 O        -1.8020490498        1.7137761968        3.3982321371
 O        -3.9543760488        1.7274234991        7.3795581054
 C        -6.0963193265        0.3294251229        5.7172856084
 C        -6.5449154875       -1.1358638726        5.5306496656
 C        -8.0726570098       -1.3358983130        4.9632373816
 C        -8.1085187280       -1.4755404806        3.4222758447
 C        -6.9091340746       -2.2940036390        2.7382982118
 O        -5.9436533437       -2.1361185319        5.9212418473
 O        -9.0328116876       -0.9535280643        2.8272338320
 C        -8.4874586529       -2.6927907336        5.5338801883
 C        -8.9447981589       -0.1735261444        5.6405255015
 H        -5.3652349065        0.6097146904       -9.8024473195
 H        -3.7786220411        0.9874301653      -10.1011715914
 H        -4.0568093273        0.0438919824       -8.5936225146
 H        -4.9449487479        1.9866330486       -5.0218709122
 H        -4.4340046371        0.5717940726       -5.8513028741
 H        -0.8399567227        1.2833291584       -7.1206825275
 H        -1.6862194517        0.7754042827       -8.6457111790
 H        -2.2345239237        0.0602329091       -7.2408710181
 H        -1.5794743042        3.1776626376       -8.9794568508
 H        -2.7032651863        4.2922385681       -8.0912514870
 H        -1.2449852429        3.5855949833       -7.2812230318
 H        -3.6223763365        1.6236123309       -3.1428653745
 H        -4.0559602010       -0.0394153215       -3.5583550676
 H        -1.2110207004       -2.0073665684       -2.7534208842
 H        -0.0358630940       -1.5171574132       -3.9928787336
 H         1.3318278324        1.0998147969       -3.7035512450
 H         0.3508150779        2.4426774342       -4.5579419221
 H         0.2977052436        0.8812850452       -5.2760567350
 H        -0.8912817435        2.1261395156       -1.3861609478
 H         0.2178111443        2.7598899506       -2.5952437069
 H        -1.5707517440        2.8492308411       -2.9458596029
 H         1.6690431070       -1.8510350399       -1.7606624723
 H         1.1051758354       -3.1474678012       -2.9185933100
 H         3.8790769088       -3.9032495780        1.9421906005
 H         3.0111462719       -5.3798684645        1.6406570801
 H         0.2131132320       -5.2056474930        1.9309465885
 H        -0.9431289764       -3.9631579023        1.2574808243
 H         0.6151534709       -3.6590803144        2.1990805704
 H         2.0591884973       -5.7875716169       -0.8303836673
 H         0.6230355687       -6.4174260336       -0.0908349322
 H         0.5594815849       -5.4658050772       -1.6126283797
 H         5.6732985429       -4.3930098262        0.5954329525
 H         4.8600338892       -5.9183617414        0.2255537037
 H         4.7178298231       -1.6064714332       -3.6223561596
 H         4.3926238546       -2.0227595015       -1.9141682008
 H         7.9863145327       -5.0683258158       -2.2285668770
 H         7.0955655346       -6.3635588791       -1.4079081666
 H         7.3521115586       -4.8042757612       -0.6615174941
 H         4.4430017722       -5.8392209172       -3.3473066000
 H         5.2964908931       -4.7855721054       -4.5161704279
 H         6.0467729595       -6.2955477137       -3.7814873660
 H         6.7265749063       -0.2627658711       -2.4794486614
 H         6.0291507032       -0.9678547352       -1.0202138558
 H         5.1668172028        3.6240225674        0.9252562967
 H         3.8911646009        4.2870173972       -0.0764251802
 H         6.4833733573        1.6944208702        0.4344119922
 H         6.9435016802        3.1904853605       -0.3494533624
 H         7.4727935564        1.6829295432       -1.0933602701
 H         5.4571086476        3.8985122848       -2.0636463383
 H         5.6987147846        2.6950830104       -3.1533762437
 H         4.0375306424        2.9332754764       -2.8585453181
 H         3.6827472109        2.9787464253        2.9093669490
 H         3.4943429312        4.6268877600        2.6101469294
 H         0.8274042898        0.5021367053        5.1664197564
 H         1.3441679748        2.1227245201        5.5779625185
 H         0.5347544102        4.0425719580        5.0029541383
 H         0.9483278544        5.3454969384        3.9420160684
 H         2.2438863107        4.3302885019        4.6696512320
 H        -0.6011683724        3.0795197089        1.6795218318
 H        -1.2036964865        3.8226070593        3.1884646010
 H        -0.4777105852        4.8157326088        2.0000010391
 H        -0.7647854528        2.6835637371        6.4385272859
 H        -1.0990945207        1.0799035433        6.1605877605
 H        -4.1829594568        0.0589154918        4.6987147145
 H        -4.1714661065       -0.4135340391        6.3607749286
 H        -2.6827637281        4.0878359110        6.6404361598
 H        -4.3039515500        4.3454969728        5.8297514667
 H        -2.6693158357        4.8784556173        5.0161061202
 H        -4.6283541558        3.6055043312        3.7120741937
 H        -3.8644053399        2.3348177336        2.9193276184
 H        -5.2644952121        2.1948779281        4.1111100466
 H        -6.3184846728        0.5131727202        6.7820527510
 H        -6.5238539046        1.1588873310        5.0453844531
 H        -7.4066674306       -3.2203406544        2.5270761974
 H        -6.5925891063       -1.8490278087        1.8655093160
 H        -6.1424201632       -2.4887362123        3.4375503705
 H        -7.6845031080       -3.4411037994        5.4358079272
 H        -9.4828221285       -2.9976588891        5.2264510430
 H        -8.6098956235       -2.5590637797        6.5845509882
 H        -8.6942500262        0.7729130638        5.3519824234
 H        -9.9612831868       -0.3126060266        5.2502640726
 H        -9.2027156815       -0.3152646881        6.7410439479
 Na        1.4463575399       -0.0264657198        0.7521495098
