155

 C        -4.0001456932        0.8315871093       -9.5318227799
 C        -4.0760809538        1.9737257850       -8.3560853315
 C        -2.7472190571        2.0684665744       -7.4472381569
 C        -3.1377869272        2.3140447350       -5.9141033156
 C        -3.9588271032        1.3777758642       -5.0577786377
 C        -1.9908421684        0.7747290239       -7.5478141730
 C        -1.9675121612        3.2544729285       -7.9654006540
 O        -4.9897915939        2.6428684487       -8.0714684518
 O        -2.6991597258        3.3759405494       -5.4549293941
 C        -3.3118969224        1.1897303250       -3.7108410626
 C        -1.8966323605        0.6557379772       -3.8486388167
 C        -0.6883548973        1.0388795404       -3.0190363056
 C        -0.2128048775       -0.1867946912       -2.2024146078
 C        -0.1152735055       -1.5748661099       -2.8228031730
 O        -1.7345074198       -0.3559774781       -4.4580826444
 O         0.0512625737        0.0909752823       -1.0290634595
 C         0.4781766959        1.3642016561       -4.1063629113
 C        -1.1240889310        2.2409103169       -2.1942344398
 C         0.8308996096       -2.5439486875       -2.0615885881
 C         0.1337556660       -3.1783184072       -0.9138187533
 C         0.9780457311       -4.0455036589        0.1467763190
 C         2.3582529784       -3.4266219270        0.5430343695
 C         3.5764256779       -4.3361938864        1.0250322782
 C         0.2369250899       -3.9460360716        1.5044530406
 C         0.9726246596       -5.5075432342       -0.3844675527
 O        -1.0427549942       -3.0223479092       -0.7160823313
 O         2.4655206266       -2.2528805528        0.6047744376
 C         4.7031312424       -4.6218323054        0.0614574842
 C         4.4624281788       -4.4675811231       -1.4791738904
 C         5.5327455864       -4.4877307100       -2.5374692427
 C         6.0269076869       -2.9281075757       -3.0903905210
 C         5.0841411947       -1.7563080257       -2.9487515887
 O         3.2087269993       -4.4219736364       -1.7143968381
 O         7.1302176470       -3.0317549627       -3.4791032749
 C         6.8590180002       -5.1868756815       -2.1314173672
 C         4.7720428042       -5.1331126467       -3.7885199264
 C         5.7759868765       -0.5431876250       -2.1520204529
 C         4.8453786684        0.5834829023       -2.1831331108
 C         5.2416778406        1.9247525177       -1.5184939752
 C         4.2123391570        2.1196618596       -0.3771391370
 C         4.0544418189        3.4027192331        0.5406905134
 C         6.6251190057        1.8326723964       -0.8643611718
 C         5.1071230713        2.9431539250       -2.6513473374
 O         3.7419418425        0.4181528063       -2.7442587585
 O         3.6748215819        1.0605950868       -0.0149390414
 C         3.4169379505        3.0119548168        1.7927872997
 C         1.9096711539        3.0614383289        1.6825914384
 C         0.9697527569        3.3476647619        2.9482321464
 C         0.8344111022        1.7560788844        3.7620943243
 C         0.5884478367        1.4240863252        5.3791550473
 O         1.3893198194        2.5360951705        0.7452026741
 O         1.2259803958        0.7959455439        3.1165245487
 C         1.6663518302        4.3278272687        3.9858697087
 C        -0.3666443804        3.9401552373        2.5363947403
 C        -0.8511437673        1.8795093878        5.7386394328
 C        -1.9644222551        1.9543264428        4.7453475979
 C        -3.3413095437        2.6239997328        5.1526709751
 C        -3.8583431659        1.6419300641        6.1787571612
 C        -4.2126063650        0.2086033762        5.5595650065
 C        -3.2214067350        4.0182863549        5.8639024834
 C        -4.3921856226        2.7617252884        3.9343456929
 O        -1.9059728421        1.6017341049        3.5315208717
 O        -3.7168535707        1.8640071615        7.3647226453
 C        -5.7733172481        0.1394456611        5.5804827805
 C        -6.4741509793       -1.3145601250        5.6618192747
 C        -8.1013776872       -1.2212097312        5.2119810083
 C        -8.3917237674       -1.2321715709        3.5768476162
 C        -7.2177478807       -1.6118956709        2.5957208600
 O        -5.8534996254       -2.1771552839        6.2168597080
 O        -9.5124513762       -1.2376942652        3.2127924493
 C        -8.7539920390       -2.5762980943        5.6963134483
 C        -8.8829217014        0.0647029913        5.8584696797
 H        -4.3726159767        1.2885028951      -10.3744034543
 H        -2.8896233604        0.5530999377       -9.9751276388
 H        -4.6123534347       -0.0131778037       -9.2182943216
 H        -5.0518324039        1.6190767399       -5.1893961071
 H        -3.8170681746        0.3274116765       -5.3898023250
 H        -1.2672477670        0.7714255821       -6.7024002648
 H        -1.4358491389        0.6206044544       -8.5128946558
 H        -2.6673454172       -0.0886314972       -7.7376837940
 H        -2.1778482334        3.3041584225       -9.0143683416
 H        -2.2631155379        4.1137264887       -7.4707612139
 H        -0.8532796384        3.1501478652       -7.6801667750
 H        -3.1674778568        2.1130393138       -3.1044715671
 H        -3.6986504912        0.5324096322       -2.9940266115
 H        -1.1512210801       -2.0050399390       -2.7752406594
 H         0.1489170086       -1.3872889790       -3.8738229239
 H         1.3549541243        1.8075798855       -3.6581351441
 H         0.0125105143        1.9891033526       -4.8117133161
 H         0.5412892033        0.4250150478       -4.6435847576
 H        -1.7756809210        1.8437790694       -1.4803259180
 H        -0.2775891993        2.6164004806       -1.6228860240
 H        -1.5360523192        3.1025416370       -2.7500385487
 H         1.6057318512       -2.0285474948       -1.6263512686
 H         1.1564618881       -3.3459226953       -2.7973644204
 H         4.0162424347       -3.8514263187        1.8089297260
 H         3.1919504819       -5.2876429346        1.4948285432
 H         0.3871646451       -4.8843266404        2.1200175628
 H        -0.7529074344       -3.8465194107        1.3689385250
 H         0.4872514537       -3.1239454829        2.1061054456
 H         1.6208333648       -6.1820673673        0.1850861425
 H        -0.0267786496       -5.8281498168       -0.2170292577
 H         1.2051140902       -5.7019238187       -1.3800211528
 H         5.4166118651       -3.7962311453        0.2724571783
 H         5.2929584323       -5.5977148264        0.2830547967
 H         4.7921469219       -1.4435111991       -4.0002639002
 H         4.2343048812       -1.9875063905       -2.3497725353
 H         7.5655189656       -5.3050050984       -2.9582421528
 H         6.5522591497       -6.1657244469       -1.7876417928
 H         7.2987838800       -4.7396943589       -1.2592383533
 H         4.7653326625       -6.2184689272       -3.8554106902
 H         3.7824396158       -4.7047970397       -3.7851833474
 H         5.2805491770       -4.8937965636       -4.7162304329
 H         6.7108649401       -0.2374140669       -2.5645789062
 H         6.0032398598       -0.8813610391       -1.1262129399
 H         5.0675376637        3.5723708155        0.8830159380
 H         3.7392402993        4.3152668940       -0.1031360246
 H         6.8148850498        0.9844559224       -0.1630798864
 H         6.7882727894        2.7132117899       -0.3504209050
 H         7.3862440479        1.7518362725       -1.6386162012
 H         5.6543830776        3.8507485566       -2.4268064225
 H         5.3717239181        2.7500486282       -3.5978640647
 H         4.0095366479        2.9619792260       -2.7842414150
 H         3.7109742102        2.0141316952        2.1748083670
 H         3.8305803529        3.5457237232        2.5428356716
 H         0.8322058335        0.4140168793        5.4032702148
 H         1.4350223834        1.8904628749        5.9508842960
 H         1.0433634155        4.7322200124        4.8126586672
 H         2.2166961434        5.1500760662        3.4749461300
 H         2.5494476672        3.7482740900        4.4617021938
 H        -1.1216687924        3.1775473276        2.2420530253
 H        -0.8125820150        4.4832669243        3.3591468922
 H        -0.3026561890        4.6375058349        1.7392799863
 H        -0.8919792898        2.8671065065        6.2558690528
 H        -1.1920529565        1.3222845145        6.5649093386
 H        -3.7787384297        0.0534566670        4.5669597148
 H        -3.7865014029       -0.5521346342        6.3105658278
 H        -2.2718790877        4.1732573009        6.3767494767
 H        -4.0450111968        4.0922504393        6.5628039249
 H        -3.2746439624        4.7752244679        5.0762553225
 H        -4.7376925984        3.8372650673        3.6330230983
 H        -3.9874386706        2.2921105408        3.0740233513
 H        -5.2814279951        2.3808070704        4.4082837369
 H        -5.9866483106        0.6876243749        6.4942556537
 H        -6.1398167404        0.7163692223        4.8112392328
 H        -7.5023489683       -2.3317122900        1.8046496674
 H        -6.7818731450       -0.5906690828        2.2533066216
 H        -6.4023323666       -1.9797934554        3.3018871820
 H        -8.1778702892       -3.3535704160        5.1721228948
 H        -9.7748496026       -2.6194193320        5.2658717871
 H        -8.8501115763       -2.7783501112        6.7896242826
 H        -8.6885987798        1.0572826669        5.2542958708
 H        -9.9781559723       -0.1163999869        5.8606616086
 H        -8.6579645629        0.1339900258        6.8869740568
 Na        1.5612768515       -0.0186005604        0.5033144932
