155

 C        -3.9005814283        2.2213644849       -9.6259078721
 C        -3.8668916086        1.4275885203       -8.2936000970
 C        -2.4307479299        1.5281152730       -7.4505994555
 C        -2.6995669761        2.1440562977       -6.1108647384
 C        -3.7909797962        1.5952109417       -5.0593617764
 C        -2.2096160284        0.0318424275       -7.2649409258
 C        -1.3696009148        2.2974413414       -8.2741931907
 O        -4.6609414906        0.6154824803       -8.0448354014
 O        -2.2890551034        3.2547853120       -5.7733916631
 C        -3.3548412949        1.8146720832       -3.7014401940
 C        -2.4487743528        0.8282764979       -3.0388296863
 C        -1.3232890040        1.3419043133       -2.0960138836
 C        -0.3742223468        0.2339454846       -1.4544901608
 C        -0.1665829001       -1.1469503602       -2.2390574155
 O        -2.7611249915       -0.3443864406       -3.0489823902
 O         0.2773509754        0.5857934640       -0.4786892576
 C        -0.4729759385        2.4089208660       -2.8227575084
 C        -2.1871472249        1.9881953890       -0.8719177621
 C         0.8255031574       -2.0457535824       -1.4970768851
 C         0.2339676874       -2.3547540647       -0.1037591069
 C         1.2430973082       -3.1992237985        0.9605947056
 C         2.6874789856       -3.1478828947        0.6354725893
 C         3.5147217481       -4.2733396709        0.0147251683
 C         1.1768649438       -2.5840309239        2.3814318889
 C         0.6400003253       -4.5555592494        1.0326675448
 O        -0.8286187308       -2.0071041781        0.2615910006
 O         3.3370721522       -2.0529221888        0.7803005222
 C         4.2553216381       -3.8925573778       -1.2600090290
 C         3.7218556107       -4.7562786254       -2.4395214330
 C         4.4475837668       -4.5741639624       -3.8464170830
 C         5.4869055755       -3.3879268369       -3.5276005933
 C         4.9869145692       -1.9830493319       -4.0815101308
 O         2.7214551962       -5.4806153657       -2.2279691953
 O         6.5337774308       -3.5889549658       -2.9326831497
 C         5.2820398178       -5.9791999100       -4.0457014053
 C         3.3358756600       -4.2539616967       -4.8419133091
 C         5.7313797721       -0.7773961364       -3.2710522809
 C         5.0514781756        0.4991356325       -3.6735697443
 C         5.2993608224        1.8016602759       -2.6796345596
 C         4.0925267341        1.5734084409       -1.4853701915
 C         4.2956845056        2.5715457625       -0.3233133535
 C         6.8422414183        1.8251732486       -2.4148804684
 C         4.8711192648        3.2047455586       -3.2131878758
 O         4.6444358994        0.7333816330       -4.8233850963
 O         3.4682365125        0.5518459962       -1.5205525318
 C         3.9505429127        2.2946916311        1.2223030378
 C         2.4858252517        2.5181339013        1.3927119132
 C         1.9389159762        2.7540167211        3.0093296015
 C         1.6202205778        1.3256321039        3.5494947181
 C         0.9658107487        0.8566010222        4.9633311363
 O         1.7482743285        2.5163504084        0.4348772791
 O         1.8595449509        0.3351850206        2.8558498974
 C         2.9759209278        3.5858435759        3.8374207314
 C         0.7462775064        3.5312225670        2.7585552470
 C        -0.2357855214        1.9119410124        5.4099748106
 C        -1.6976136604        1.8825107673        4.7587858685
 C        -2.9506934672        2.4912999648        5.5431911117
 C        -3.5431622937        1.1951662202        6.5240961842
 C        -4.3788955300        0.0278805163        5.9829874181
 C        -2.4649779783        3.6507996019        6.3713742728
 C        -4.0249070130        3.0082524538        4.6657580346
 O        -1.8674131382        1.3274692391        3.6920016033
 O        -3.3350188796        1.1936938350        7.7183125220
 C        -5.8594965824        0.0000250208        6.6682410420
 C        -6.9772042361       -0.5959194587        5.6645688286
 C        -8.4453743712       -0.7886796973        6.1686897309
 C        -9.2549700850       -0.9244790981        4.9020556856
 C        -9.3567654527        0.1592682973        3.8216256552
 O        -6.6247722231       -1.1025640106        4.6377861417
 O        -9.8414584053       -1.9409176112        4.7334306133
 C        -8.7727623534       -2.1411428909        6.8212494201
 C        -9.0404345576        0.2436269587        7.1419189948
 H        -4.9014119726        2.4460823475       -9.8942384762
 H        -3.1449362551        3.0271335199       -9.7306827785
 H        -3.6253290666        1.6532238160      -10.5343183269
 H        -4.7995401321        1.9867574983       -5.2306607438
 H        -3.9664600866        0.5310657766       -5.3954036891
 H        -1.5254444247       -0.1443363292       -6.4389690648
 H        -1.7384356579       -0.1781104677       -8.2677926463
 H        -3.0661623686       -0.5623724011       -6.8410743192
 H        -0.9696310121        1.6735662298       -9.0818631816
 H        -1.6526052675        3.2267760651       -8.5902378665
 H        -0.4525712230        2.2068021746       -7.5986329738
 H        -2.8327152612        2.7129499993       -3.6500608640
 H        -4.2045294878        2.0199749202       -3.0307672418
 H        -1.1890662948       -1.6205919283       -2.2256197874
 H         0.0975739407       -0.8221374085       -3.2244313044
 H         0.0824439146        3.0723993737       -2.1295837298
 H        -1.1412109331        2.8663424618       -3.5297102965
 H         0.2962165463        1.8613292514       -3.4725012004
 H        -2.7895341419        1.2304011718       -0.4753399400
 H        -1.5437718779        2.3726896064       -0.0420974728
 H        -2.8956394834        2.7682296177       -1.2333056404
 H         1.8484688856       -1.6336513434       -1.5805438019
 H         1.0061375696       -3.0340518271       -1.9806294044
 H         4.3266824251       -4.3085956996        0.7313889867
 H         2.9944626678       -5.1843497435       -0.1370421977
 H         1.8302160798       -3.2778908689        3.0143112297
 H         0.2037209092       -2.6434719199        2.6524307253
 H         1.6124164056       -1.6515053940        2.5327189680
 H         1.1404364231       -5.1435289480        1.8113895199
 H        -0.3153231554       -4.3935885592        1.4619384961
 H         0.5752887574       -5.0287671953        0.0886605642
 H         4.2995706101       -2.8799741325       -1.5303066486
 H         5.3279008886       -4.2258462404       -1.3431259980
 H         5.1592276783       -1.6257484046       -5.1366331337
 H         3.8811377192       -1.8793670974       -4.0570445226
 H         6.0217673024       -5.9021110389       -4.8642604800
 H         4.6023292443       -6.7600417946       -4.2701459416
 H         5.8790616125       -6.2310247017       -3.2425250230
 H         3.0197192760       -5.1035931087       -5.5095042394
 H         2.4462471269       -3.8455972656       -4.3497858590
 H         3.8017653305       -3.5775452808       -5.5614809837
 H         6.8026067658       -0.7908201493       -3.5264345553
 H         5.6672106977       -0.9052636883       -2.2281782668
 H         5.2982419125        3.1253817915       -0.5271147670
 H         3.4760532746        3.1828989708       -0.6589509763
 H         7.2268266894        1.0051149955       -1.8211006751
 H         7.0346320503        2.7464998783       -1.8661210397
 H         7.3039193791        2.0296771680       -3.3553239582
 H         4.5849240122        3.3569603966       -4.2635263063
 H         4.0638618100        3.4025277005       -2.6771233626
 H         5.7836206936        3.7618526098       -2.9490058152
 H         4.2083981042        1.2864059875        1.4009050362
 H         4.7283412831        2.9260103471        1.6406898778
 H         0.6507076222       -0.1151498928        4.6930463888
 H         1.7131981454        0.7728106450        5.7333676816
 H         2.9010516792        3.3932495213        4.8996642253
 H         2.9537676079        4.6330666301        3.8885720250
 H         4.0279213277        3.3643331844        3.6934432470
 H        -0.0202866928        3.0692236288        2.1747029670
 H         0.2929498482        3.9153004927        3.6915098913
 H         1.1046742553        4.3780792747        2.2040905854
 H         0.0203370863        2.9976489757        5.0538869491
 H        -0.2957338065        1.8306249558        6.4639466760
 H        -4.5804026635       -0.0241148946        4.8816437231
 H        -3.8775246086       -0.9514567546        6.1542828824
 H        -1.4327141789        3.3599414869        6.6654859689
 H        -2.9952212122        3.8805549411        7.3129464304
 H        -2.4675794211        4.5125145335        5.6619415191
 H        -3.6878916814        4.0194657032        4.1793821278
 H        -4.1787603727        2.1954109690        3.9982475002
 H        -4.9907511656        3.1370939707        5.1909722897
 H        -5.7679076470       -0.8842333908        7.2429811046
 H        -5.9982009183        0.7366183453        7.4400179573
 H        -9.7247248911       -0.3623170519        2.9447460456
 H       -10.1387318149        0.9612627189        4.1000293759
 H        -8.3625447865        0.6374132250        3.6760569061
 H        -8.6355229370       -2.9980748564        6.1668443815
 H        -9.7915664204       -1.9825679747        7.1239870175
 H        -8.2140714396       -2.3739098028        7.7507279498
 H        -9.1111451918        1.2379803643        6.5687142597
 H       -10.0608452957       -0.0005166241        7.5600368301
 H        -8.2884500998        0.2520586020        7.8792734532
 Na        2.3009624127       -0.0638418749        0.5613721796
