155

 C         7.7171235008       -6.4561916050        7.6479527368
 C         6.2044813303       -6.5761020153        7.3044900340
 C         5.1396340805       -5.6792256864        8.2973770640
 C         5.1416828271       -4.0509245708        8.0378301926
 C         4.2292434795       -3.6722762773        6.8895309503
 C         3.7317147481       -6.1904155161        8.1972190140
 C         5.6139920779       -5.8936214921        9.7579571160
 O         5.7905373498       -7.3577513196        6.4656874519
 O         5.8791218722       -3.2531847395        8.5989484380
 C         3.9489908252       -2.1554029038        6.6912056821
 C         2.7447893621       -1.7745604757        5.8165753657
 C         2.4290527016       -0.2508079803        5.6417477888
 C         0.9826204790       -0.1298126172        5.0305888643
 C         0.9382535284       -0.5135196355        3.5117411062
 O         1.9300977030       -2.5691892582        5.3021822671
 O         0.0010875248        0.2185646179        5.6328810123
 C         2.4673336566        0.5722117287        6.9015408214
 C         3.6048863674        0.3198672151        4.7106171736
 C        -0.4227505755        0.0109891824        2.8259638003
 C        -0.2928369606        0.4350091132        1.3805098509
 C        -0.4277504821        1.9272793873        0.8739195236
 C         0.7229590531        2.2201840046       -0.1774223144
 C         2.0147526251        2.8191164682        0.3965473123
 C        -1.7679046741        1.7982522248        0.1296653224
 C        -0.4626638777        3.0235204018        1.9011026036
 O        -0.0609805001       -0.4470913009        0.5798717256
 O         0.7196875055        1.7715534557       -1.2985117978
 C         3.1287854221        2.4732095950       -0.6177346954
 C         4.1742769490        1.5868953458       -0.0640735601
 C         5.4343303474        1.0800548469       -0.8104929795
 C         4.9695181972       -0.2320142398       -1.5128632106
 C         4.3982610774       -1.3937692166       -0.5543616933
 O         3.9430741100        0.9487778572        0.9948669311
 O         5.1165451829       -0.4469719114       -2.7157093411
 C         5.9561432772        2.0217477622       -1.9597858796
 C         6.5808517341        0.8723590118        0.2675676455
 C         3.8962304627       -2.6165645231       -1.3034637392
 C         2.3554518701       -2.5331645969       -1.6224190058
 C         1.3918813319       -3.7361948854       -2.1564934477
 C         0.2708381203       -3.1697918065       -3.0303608452
 C         0.1838384429       -3.4297581017       -4.5467942579
 C         2.0537217644       -4.9702920803       -2.8094781937
 C         0.7938068366       -4.2060346349       -0.7927890348
 O         1.7944227228       -1.4302098403       -1.4030267118
 O        -0.6278722794       -2.5596140238       -2.4408704715
 C        -0.9208714957       -2.6133778561       -5.2615360368
 C        -1.0634730490       -1.1269727124       -4.8536391575
 C        -2.4436897228       -0.3711875128       -5.0394374771
 C        -3.1760401159       -0.0269112020       -3.7224388794
 C        -4.7054678027        0.2596181429       -3.7432332380
 O        -0.0925904741       -0.5000477019       -4.5120751879
 O        -2.4355062062        0.2214038494       -2.7573018719
 C        -2.2155013939        1.0489841020       -5.7662472753
 C        -3.3800667274       -1.1937956515       -5.9177299633
 C        -5.3993871563        0.8306318696       -2.4319278875
 C        -6.9385664777        1.0514007709       -2.5749621385
 C        -7.6121193987        1.8221991533       -1.5065998871
 C        -7.3894370442        3.3107948083       -1.7976408351
 C        -8.2706814056        4.0673194759       -2.6709606906
 C        -9.1230177253        1.3389702464       -1.7030656847
 C        -7.1421670172        1.5336635231       -0.1009340385
 O        -7.4950035828        0.4956426211       -3.4793849835
 O        -6.5917542976        3.8419579196       -1.0605966914
 C        -7.7160313257        5.4272282803       -3.1407626639
 C        -6.3219664164        5.4915285181       -3.7531672020
 C        -6.0540459255        6.1719866676       -5.3955815255
 C        -6.7494748096        5.1242693503       -6.1925989240
 C        -5.8483863593        4.3910209972       -7.2665161223
 O        -5.3239495306        5.0539544802       -3.2304362210
 O        -7.9524125583        4.7901776853       -5.9404224439
 C        -6.7633812735        7.6143889478       -5.5580088190
 C        -4.5436104764        6.2538052723       -5.5449915075
 H         8.2018953217       -7.3479939052        7.9901219273
 H         8.1611285925       -6.3650308175        6.6882795163
 H         8.1241836895       -5.6744770554        8.2431667675
 H         4.8375145534       -4.0784610207        6.0228459797
 H         3.2589850323       -4.2277712468        6.8519581220
 H         3.2030061367       -6.2918704018        7.3317247077
 H         3.0712494635       -5.5737470317        8.8216149791
 H         3.5756056456       -7.1693682395        8.6197284050
 H         6.6992315224       -5.9672541285        9.8492227015
 H         5.4572337170       -5.1030836582       10.4570599742
 H         5.2388311119       -6.8368080302       10.2429597182
 H         3.8223272414       -1.7017127174        7.6579210935
 H         4.8732750742       -1.7601592549        6.2739702115
 H         1.8861553353       -0.1084498935        3.0279197191
 H         0.9950650120       -1.5614601680        3.3613756841
 H         2.5047210528        1.5691915433        6.5195511154
 H         3.3454748045        0.4352597757        7.4826036341
 H         1.6533684379        0.1731137502        7.5414433978
 H         4.4485175130        0.5603244720        5.3071959319
 H         3.8782939316       -0.4070477447        3.9163529501
 H         3.3293663115        1.1967366847        4.1654899809
 H        -0.7787810289        0.8107673333        3.4423258018
 H        -1.1639660595       -0.8470856641        2.9966245468
 H         2.1150631052        3.9172648149        0.5189933613
 H         2.2232063823        2.3807406027        1.2991066823
 H        -1.6026267394        1.2751222560       -0.8207423634
 H        -2.2371949889        2.7282139430       -0.2237277467
 H        -2.5625557530        1.4142437841        0.7207823688
 H        -0.7068624257        2.6624586131        2.8647261437
 H         0.5240321246        3.4599794569        2.0421074386
 H        -1.1677292934        3.7473838655        1.5858626122
 H         2.6633079052        1.9796897331       -1.4559884391
 H         3.5611273604        3.3329104148       -1.1221284101
 H         5.2700723725       -1.7615659091        0.0161958472
 H         3.6064517909       -0.9858963933        0.0773795845
 H         5.3454886936        2.9265378063       -2.2330322156
 H         6.1022078415        1.5433838695       -2.9227715698
 H         6.9185733624        2.4589068200       -1.6411661935
 H         7.0798740527        1.8571764784        0.3874119602
 H         6.2683363668        0.4771212794        1.2474523683
 H         7.3004021903        0.2037033744       -0.2022292836
 H         4.0368478325       -3.5154196646       -0.7074754359
 H         4.5104453415       -2.8375808485       -2.2056416752
 H         1.1814542493       -3.2549571222       -5.0017448822
 H        -0.0801277082       -4.4543923288       -4.6736651051
 H         2.5633417367       -4.7731424104       -3.7673330363
 H         1.3097312519       -5.7622536916       -3.0633954371
 H         2.7861241229       -5.4851226362       -2.2299114161
 H        -0.1102688672       -4.7689852318       -0.9891549983
 H         1.5444572297       -4.8023881964       -0.2227700211
 H         0.5591337014       -3.3134348865       -0.2514781248
 H        -0.8586375188       -2.5726568314       -6.3698500298
 H        -1.9297399926       -3.1108235789       -5.0605826389
 H        -4.9731144732        0.8669023288       -4.7491002837
 H        -5.3465213813       -0.6358011841       -3.8876652611
 H        -1.3510888002        1.3810296181       -5.2699531885
 H        -3.0942092098        1.6668367589       -5.6557302151
 H        -1.9773741537        0.8620884643       -6.7908459999
 H        -4.1658892083       -0.5976452020       -6.3260103587
 H        -2.8850546595       -1.7067088444       -6.8893263040
 H        -3.7651425082       -2.0508313099       -5.3581760766
 H        -4.9055147505        1.7254989629       -2.1646387813
 H        -5.1753126116        0.1459148168       -1.5847630753
 H        -8.3902458154        3.3630847290       -3.5661957275
 H        -9.2590157421        4.2064956030       -2.1914786414
 H        -9.4638865511        0.3250076368       -1.4792151121
 H        -9.6109972228        1.5666866008       -2.6796211463
 H        -9.7170260953        1.9152577932       -1.0213856285
 H        -6.2265274611        2.1182130743        0.2126984814
 H        -7.9249653065        1.9249295136        0.5567208484
 H        -6.9807576513        0.5665319799        0.2381764448
 H        -8.4808533584        5.9347209780       -3.7100054508
 H        -7.5380231507        6.0956152568       -2.3262909993
 H        -5.2408065729        3.6102102382       -6.7954087996
 H        -6.4296061105        4.0264015055       -8.0912113650
 H        -5.1299807065        4.9854198404       -7.8233691234
 H        -6.0769212454        8.4259809079       -5.6724254360
 H        -7.4089549806        7.9992303296       -4.7063007909
 H        -7.3879692208        7.5863121869       -6.4495707747
 H        -4.1894107108        6.8117414641       -6.3918001247
 H        -4.1502361778        6.5321119077       -4.5473899442
 H        -4.1782805506        5.2761502927       -5.6311773113
 Na       -0.2900170210       -0.3224149397       -1.9798336087
