155

 C        -4.1728568144        2.4533808673       -8.5664923291
 C        -3.6319772604        1.0388268931       -8.1013103389
 C        -2.2800247630        0.9318908940       -7.3199795914
 C        -2.2621230334        1.4313983483       -5.8423988069
 C        -3.6647195358        1.6527348677       -5.1474462745
 C        -1.9669633303       -0.5857269534       -7.1766481264
 C        -1.3604250113        1.7891729291       -8.1366070108
 O        -4.1947401271       -0.0226979520       -8.4440155083
 O        -1.2184976532        1.6501460810       -5.3134822372
 C        -3.4456779024        2.2402812738       -3.7746038243
 C        -2.8797759613        1.1636679777       -2.7766243471
 C        -2.0984046325        1.5748634781       -1.5358534122
 C        -1.0958860363        0.4734365553       -1.0618231833
 C        -1.6460760147       -1.0053428637       -0.8581013640
 O        -3.2417588884        0.0293006173       -2.8373633780
 O         0.1035653834        0.7429241124       -1.0762303026
 C        -1.3738319608        2.9841929654       -1.8723061834
 C        -3.1342763675        1.8214474179       -0.4302867726
 C        -0.4392733649       -2.0558564699       -0.7759036404
 C         0.3353326037       -2.1132205920        0.5234889243
 C         1.1557943171       -3.3531700006        0.8786856761
 C         2.4378177174       -3.4533282457       -0.1376315702
 C         3.2268742374       -4.8276403200       -0.2939738762
 C         1.5529989706       -3.2291421013        2.4395684925
 C         0.3515253984       -4.6700651543        0.6533005750
 O         0.1734917287       -1.2360683827        1.3716305164
 O         2.8304851242       -2.4327780220       -0.7580231228
 C         4.1149798712       -4.8160848237       -1.5413996276
 C         3.2267118440       -4.9552923390       -2.8137274739
 C         3.8275050520       -4.5123852607       -4.1454433298
 C         4.6733132533       -3.2216915488       -3.9459409168
 C         4.0823889418       -1.8703745562       -3.5372707192
 O         2.1522200051       -5.5303194227       -2.7646463115
 O         5.8133509690       -3.2884870247       -4.3407340603
 C         4.7868760004       -5.6984255492       -4.4988186228
 C         2.7486034914       -4.3842678363       -5.3091727562
 C         5.2333832219       -0.8782867385       -3.2552564509
 C         4.7178984136        0.5161633713       -3.8193990109
 C         5.0964999662        1.7699414915       -2.8854574171
 C         4.5438594286        1.7114442764       -1.3069034373
 C         4.9763191277        2.8248985265       -0.2424027543
 C         6.5573106366        1.7291848374       -2.8635672157
 C         4.6838085692        3.2772294688       -3.4688787499
 O         4.3292081979        0.6018445971       -4.9435082140
 O         3.9242315766        0.7350887962       -0.9354498097
 C         4.4888012141        2.4425560445        1.2403593456
 C         3.0671160841        2.9928315134        1.5262960068
 C         2.2303966465        2.7871749199        2.7516512889
 C         1.7715505139        1.3339001289        2.6326859878
 C         1.2410884013        0.6602424066        3.9925840504
 O         2.5839787703        3.5883243390        0.6068661821
 O         2.0306392630        0.6398949756        1.6479197550
 C         3.2411610025        2.7827130575        3.9732351251
 C         1.2416563694        3.9141598774        2.8441256145
 C         0.2840163672        1.3542658563        4.9936522660
 C        -1.2940904258        1.6684114558        4.5342433596
 C        -2.3478154626        2.2781738106        5.5795655367
 C        -3.1194569345        0.9335815038        6.1341348755
 C        -4.3933897995        0.6447651358        5.1868712392
 C        -1.5973645120        2.9185713251        6.7815939596
 C        -2.9636336435        3.4280051324        4.8693850385
 O        -1.5167540049        1.2971075946        3.3787042092
 O        -2.6308998166        0.1211179310        6.8648134399
 C        -5.3885089020       -0.2185921103        5.9618909788
 C        -6.7999849019        0.2358371744        5.8320877253
 C        -7.9245061031       -0.4070032441        6.8016520123
 C        -9.2775068439       -0.7585423255        5.9802463850
 C       -10.0980254954        0.4930833760        5.5624529856
 O        -7.1193083488        1.2041024197        5.1230276328
 O        -9.8061323703       -1.8749135278        5.8295274507
 C        -7.5610294637       -1.7932780255        7.4124506872
 C        -8.2218753089        0.6818538456        7.8681321157
 H        -3.7042471350        3.3117366509       -9.1180365596
 H        -4.9449435316        2.1701219263       -9.2426200552
 H        -4.4752967431        2.9583207337       -7.6548360268
 H        -4.2540928224        2.4029707480       -5.7305208798
 H        -4.1585114043        0.6048260205       -5.1017647342
 H        -2.6396737814       -0.9489415523       -7.9032044695
 H        -2.0209705914       -1.0570019271       -6.2242473420
 H        -0.9820781287       -0.8405490250       -7.4942369255
 H        -1.2487090550        1.3416606792       -9.0891987621
 H        -1.6705256389        2.8321184622       -8.3741657020
 H        -0.4285539952        1.9582756338       -7.6514092950
 H        -2.8725616482        3.1624639754       -3.7917871791
 H        -4.4780356903        2.4709526685       -3.3831331543
 H        -2.3799359017       -0.8912181772        0.0306252178
 H        -2.2583842522       -1.1642487445       -1.6984189663
 H        -1.4662608102        3.7481548842       -1.0901821260
 H        -1.8160864147        3.4869935453       -2.7091840020
 H        -0.3591626790        2.8662001033       -2.3054465314
 H        -3.7514610174        0.9396787148       -0.2485152428
 H        -2.6704214439        2.1297940539        0.4882452047
 H        -3.7586754309        2.6929950856       -0.6591364508
 H         0.2118053846       -1.8460265580       -1.5925587144
 H        -0.8278083767       -3.0459094056       -1.0624117821
 H         3.7564084869       -4.7931710918        0.6573392838
 H         2.4652972154       -5.6457399291       -0.2514821123
 H         2.3234520097       -3.8989449066        2.6511005075
 H         0.6859311591       -3.5882593099        3.0481999238
 H         2.0542411517       -2.2991890026        2.7503439771
 H        -0.7284377154       -4.4148985779        0.7886789469
 H         0.4647498135       -5.3228525876       -0.2451724216
 H         0.4704195633       -5.2423542873        1.5865270530
 H         4.6622057170       -3.8546041436       -1.5992231999
 H         4.8444211652       -5.7392942489       -1.6618394828
 H         3.5182295462       -1.5526346148       -4.3823954283
 H         3.4591594883       -1.9525897026       -2.6977105610
 H         5.5135051212       -5.5078397831       -5.2973360111
 H         4.1410386737       -6.5393249168       -4.8888622351
 H         5.2319898753       -6.1488460057       -3.5663387422
 H         1.8174240858       -4.2190621562       -4.8055396044
 H         2.9197252008       -3.4850291362       -5.8934685742
 H         2.7874813454       -5.2518208599       -5.9435929157
 H         6.0625405175       -1.3407741785       -3.8819116064
 H         5.6343231909       -0.9669837060       -2.2257968581
 H         6.0453079442        2.8745739690       -0.1645134782
 H         4.5731032189        3.8251811909       -0.7332825475
 H         6.9731730334        0.6871270885       -2.6691136037
 H         6.6995625963        2.2174207526       -1.9582313812
 H         7.1580534819        2.1140559237       -3.7259066037
 H         5.5706911560        3.8039925106       -3.3040391517
 H         4.2076007851        3.2204058525       -4.4825293722
 H         3.8781543674        3.7716408519       -2.8921371305
 H         4.6195827692        1.3734798093        1.3180575003
 H         5.1726550976        3.0312308998        1.6853443588
 H         1.1530412535       -0.4364856208        3.7558929824
 H         2.1853043478        0.6211251132        4.6871687232
 H         2.6285350484        2.6388293656        4.8622490607
 H         3.8145797338        3.7477358867        4.2766524726
 H         3.9786822510        2.0779049779        4.3094558054
 H         0.2835687670        3.7572113666        2.1881563666
 H         1.0783882101        4.1203091339        3.8864971083
 H         1.7554959792        4.7915120063        2.4652824312
 H         0.7069111815        2.3778151321        5.2904814578
 H         0.1671127228        0.7872500642        5.8713771641
 H        -4.8955672818        1.5705679425        4.9356124621
 H        -3.9455457917        0.2004029946        4.2874158802
 H        -1.1577197232        2.1937912249        7.4021665806
 H        -2.3674763152        3.4313452234        7.3434724268
 H        -0.8474649145        3.6066324881        6.4616764352
 H        -3.5446007912        3.1089486365        4.1206660819
 H        -3.6204170351        4.0089757061        5.5096112763
 H        -2.2190001151        4.0587948314        4.4866693016
 H        -5.3217372086       -1.2688059323        5.6763753289
 H        -5.0662590175       -0.2409079527        6.9718154087
 H       -11.0008453114        0.3812284805        6.1356856702
 H        -9.6944044548        1.4376876912        5.7815822117
 H       -10.3270260852        0.3951962845        4.5168650907
 H        -7.3362639655       -2.4835321778        6.6145020305
 H        -8.4049015545       -2.2988738045        7.9053697830
 H        -6.8116892446       -1.9245462516        8.2046733303
 H        -8.8111259497        1.5311213048        7.4469411281
 H        -8.5659779091        0.1653166087        8.7717818815
 H        -7.2512245256        1.1261676416        7.9572530248
 Na        2.0777543223       -0.3158641742       -0.3844592227
