155

 C        -4.1991544833        2.3237788850       -8.9748450365
 C        -3.7333642946        0.9875708998       -8.4280904370
 C        -2.2771872893        0.8975174604       -7.4021985132
 C        -2.3937827790        1.2453638379       -5.8672197410
 C        -3.8063310906        1.6140485338       -5.1248822738
 C        -1.9355285967       -0.6076530510       -7.3024545381
 C        -1.0130033480        1.5779450566       -8.0286627948
 O        -4.2989376263       -0.0271605756       -8.6268234696
 O        -1.3489036643        1.3409867019       -5.2134536030
 C        -3.5723370770        2.2786218756       -3.6719154107
 C        -2.9991376167        1.2255943209       -2.5896827551
 C        -2.0753198902        1.6210216333       -1.1951014040
 C        -1.0239445745        0.4610531787       -1.0867655548
 C        -1.5201934276       -0.7389882980       -0.2388540402
 O        -3.3641386480        0.0959132059       -2.7861319193
 O         0.0883022255        0.6135953761       -1.5361362710
 C        -1.3737678111        2.8809392320       -1.1148527325
 C        -3.0917748955        1.5851777785        0.0060490551
 C        -0.8798132641       -2.0477532657       -0.4826490983
 C         0.1951105479       -2.2001324810        0.5577683987
 C         0.9725002641       -3.5187806743        0.8131492879
 C         2.1974641842       -3.5080226889       -0.1784832481
 C         3.2380523149       -4.7967463364       -0.1747354870
 C         1.6671321015       -3.4654229340        2.2180097717
 C         0.1697520256       -4.8717180502        0.6047226044
 O         0.4502297721       -1.2518142474        1.2660747398
 O         2.4840336432       -2.5675665295       -0.8176363459
 C         3.9078056133       -4.8374125398       -1.5063549610
 C         3.0294348139       -4.8402236198       -2.8605250699
 C         3.7705911848       -4.5053791273       -4.1999779872
 C         4.5942724829       -3.1940044980       -4.0887397461
 C         3.8013503679       -1.9504977357       -3.7520390809
 O         1.8603349459       -5.2244355300       -2.7894897983
 O         5.7322846879       -3.1150422420       -4.5238493098
 C         4.7828518455       -5.6374859736       -4.5426164834
 C         2.6645994075       -4.4477848106       -5.3266950652
 C         4.8090147546       -0.8376918301       -3.2859068991
 C         4.5560003154        0.6220514424       -3.6775637622
 C         5.2456147810        1.7403544049       -2.8200006496
 C         4.7086522519        1.4894078783       -1.3797684473
 C         5.0372074651        2.6814895024       -0.3310287190
 C         6.7847480422        1.8215941786       -2.8073358644
 C         4.5625235142        3.0480509042       -3.2755420825
 O         4.0068522874        1.0998157115       -4.6613331077
 O         4.1584696814        0.5098543752       -0.9388608518
 C         4.4511454531        2.4705525038        1.1281283342
 C         3.2010562782        3.0834813800        1.3841867173
 C         2.4816031689        2.8625179831        2.7706701579
 C         1.7970687434        1.3282214862        2.5673426145
 C         1.0436297957        0.5308085740        3.5800376829
 O         2.7409700535        3.8649216507        0.5858549059
 O         1.8353190854        0.8445403207        1.4640296761
 C         3.3132470282        2.9339098745        4.0456962702
 C         1.2166136763        3.8649575674        2.8957787030
 C         0.5047453559        1.1582724742        4.8648364734
 C        -0.8978909566        1.7273056005        4.4320250120
 C        -2.0195284060        2.1799634820        5.4542053584
 C        -3.1131211969        1.0164857813        5.7264720509
 C        -4.5279053699        1.0111017429        5.1197605863
 C        -1.3692964090        2.4923159542        6.8210167773
 C        -2.6796615504        3.3947675296        4.7267982872
 O        -1.1932547114        1.4966955395        3.3048197219
 O        -2.6370992223        0.1130691663        6.4317690068
 C        -5.3648148930       -0.1932147713        5.6856681676
 C        -6.7726445004        0.3475877618        6.0901535148
 C        -7.6891407851       -0.4270068808        7.0435875286
 C        -9.1394468458       -0.5602930226        6.1635028591
 C        -9.8738921591        0.6604006547        5.7035874121
 O        -7.1206184008        1.3212533326        5.4564839280
 O        -9.6645602118       -1.6224430898        5.9334482219
 C        -7.1776712436       -1.7713442615        7.7088735734
 C        -8.0751510908        0.6442610070        8.2734305640
 H        -3.4341899774        2.6453282783       -9.7685780581
 H        -5.0158378081        2.2914555445       -9.6207128041
 H        -4.0386951249        3.0809862597       -8.2410582382
 H        -4.2873481885        2.3402916592       -5.8189075455
 H        -4.3086590065        0.6669914402       -5.0103633151
 H        -2.5160302248       -1.2016146758       -8.0190300393
 H        -1.8906687138       -1.0544589109       -6.3058227490
 H        -0.8532373182       -0.6588890823       -7.4255465341
 H        -0.9480016427        1.1745646774       -9.0384058670
 H        -1.0247589726        2.5896987904       -8.1450548978
 H        -0.0183943896        1.4212507542       -7.4815418419
 H        -2.8326603203        3.0616357459       -3.6515275296
 H        -4.5451992331        2.6748265622       -3.4025714669
 H        -1.5198871196       -0.4265405464        0.7439001865
 H        -2.5994477523       -0.7780120438       -0.5981626278
 H        -1.1288777198        3.1048559990       -0.0341676630
 H        -1.9969833277        3.7373386165       -1.4301300213
 H        -0.4478021960        2.8911683144       -1.7286736104
 H        -3.8089204126        0.7793182312       -0.0273109192
 H        -2.6547779421        1.7118497438        1.0281819602
 H        -3.6766791379        2.5165910094       -0.0861831444
 H        -0.4144192698       -2.1130487828       -1.5284135805
 H        -1.6962070238       -2.7796351960       -0.4763898873
 H         3.9294653430       -4.6390590501        0.6906210803
 H         2.7375856944       -5.7041881770        0.0637040170
 H         2.2663241938       -4.3832469879        2.5163115815
 H         0.9033352791       -3.4712366630        2.9429112596
 H         2.1924788355       -2.5251055394        2.4161496160
 H        -0.9216372605       -4.9484411228        0.7747166865
 H         0.2787166096       -4.9510075931       -0.4729761990
 H         0.6243256508       -5.7472997174        1.0852832067
 H         4.5288620869       -3.9862564547       -1.5742154669
 H         4.5159049012       -5.6912826191       -1.6221873368
 H         3.5509779991       -1.6865078489       -4.8252318256
 H         2.8932846258       -1.9846833036       -3.0721730778
 H         5.5041598924       -5.2438377047       -5.2819934427
 H         4.3959504641       -6.5591180284       -4.9087499669
 H         5.2900675770       -5.9105057301       -3.6573419553
 H         2.1291450736       -5.4082174369       -5.2589189067
 H         1.8591543099       -3.7090364904       -5.2149994813
 H         3.2666468728       -4.2952276807       -6.2210938599
 H         5.7647182486       -1.1179453098       -3.6922026186
 H         5.0476708711       -0.9647856058       -2.2300594362
 H         6.1610400766        2.7376944979       -0.2643131245
 H         4.7377122959        3.5309377512       -0.7776500865
 H         7.1699247615        1.2706049685       -1.9942293094
 H         7.1666407896        2.8481343149       -2.7411244243
 H         7.1246444071        1.2892317301       -3.6537272468
 H         5.0053401999        3.7221874562       -2.4833813659
 H         4.7149790863        3.2928467849       -4.2848239952
 H         3.4864843822        3.0649037933       -3.1057441652
 H         4.1489316547        1.4047828126        1.1684356655
 H         5.3064561387        2.8967114043        1.8648793774
 H         0.2877690477        0.0191571759        3.0102653542
 H         1.6191402557       -0.2868408561        3.8218398664
 H         3.0958956646        3.3347330340        4.9968607358
 H         4.2300184817        3.3851967842        3.8363597562
 H         3.5627504605        1.9836143142        4.4703655766
 H         0.6201757534        3.6743051466        2.0521408495
 H         0.6461067398        3.6542657940        3.8094947295
 H         1.5753835698        4.8845100930        2.9129583286
 H         0.9179315544        2.0259932714        5.3188879047
 H         0.4224465065        0.3397123092        5.6645025032
 H        -5.0186402575        1.9424384647        5.4914599746
 H        -4.4319612477        1.0581984362        4.0325608687
 H        -1.7165330346        1.6469281021        7.5236496757
 H        -1.6783820236        3.4535906972        7.2920289504
 H        -0.2353491294        2.4586010513        6.7917941442
 H        -2.9423675060        3.0277192278        3.6416033778
 H        -3.6794604139        3.7553924123        5.0616286318
 H        -2.0507560073        4.3160447801        4.6545860987
 H        -5.4571130699       -1.1035557450        5.1280291844
 H        -4.7966601741       -0.5099079556        6.6106878366
 H        -9.7822529277        1.4968440567        6.3474610165
 H        -9.4443078665        0.9261058490        4.7161292565
 H       -10.8972886325        0.3160628313        5.6028536811
 H        -6.6964958223       -2.5650570091        7.1293716710
 H        -7.9280475474       -2.3918119345        8.1736226657
 H        -6.4338130507       -1.5320311574        8.4738481783
 H        -8.2262871196        1.5538785371        7.6727747997
 H        -9.0408968626        0.3239566898        8.6934468555
 H        -7.2281125141        0.8019431528        8.9533295632
 Na        1.9497520373       -0.3075519881       -0.5772165181
