155

 C        -3.7177396307        2.3497909626       -8.9830571532
 C        -3.6376434086        1.0046647476       -8.0899787271
 C        -2.2854277138        0.6151625523       -7.2516317304
 C        -2.2021671364        1.0293785701       -5.7178911700
 C        -3.5662179183        1.5386702254       -4.9017255709
 C        -2.1160996299       -1.0285733878       -7.2058688347
 C        -0.9751311371        1.3038377427       -7.8136660518
 O        -4.5178259566        0.2163187937       -8.2125492824
 O        -1.1917667651        0.8894682698       -5.0544302798
 C        -3.1830842275        2.1294759943       -3.6203741441
 C        -3.1713563092        1.0750600158       -2.5601431030
 C        -2.3868179513        1.4454869922       -1.0748921329
 C        -1.5032277073        0.2911591554       -0.8382764585
 C        -1.7749116190       -0.8263652776        0.2418396311
 O        -3.7883067070        0.0785411907       -2.6935861512
 O        -0.4416418214        0.2024795530       -1.4280036749
 C        -1.4861820279        2.7582270375       -1.1916952396
 C        -3.4869935705        1.8255647939       -0.0649088929
 C        -1.1346605948       -2.2145376506       -0.0754133532
 C         0.1287405912       -2.4844175879        0.7064293069
 C         0.8056184066       -3.9491841373        0.6653059077
 C         1.9704928776       -3.7356206265       -0.2995210272
 C         2.9916073302       -4.9850812384       -0.4862963897
 C         1.5001679317       -4.3445303575        1.9581955217
 C        -0.1364503524       -5.1112545141        0.0912709453
 O         0.8249476682       -1.6147309467        1.2546400158
 O         2.3007748105       -2.7012122192       -0.8171440539
 C         3.7230578061       -4.7039187892       -1.8145408900
 C         2.8526799149       -4.3857114597       -3.0507409290
 C         3.5208801430       -4.4480022316       -4.4879226763
 C         4.4600039648       -3.1867366886       -4.5772109639
 C         3.7858812409       -1.7973893986       -4.4274072097
 O         1.6089008675       -4.1723655104       -3.0160878133
 O         5.6572140046       -3.3691724026       -4.5578702252
 C         4.4172350939       -5.7835454981       -4.6040635265
 C         2.3900829227       -4.5316969958       -5.4316850553
 C         4.6840557716       -0.6403929417       -3.7819796620
 C         4.0181193329        0.6946165732       -3.5084619508
 C         4.9755287886        1.7338615341       -2.7546223064
 C         4.6913223403        1.4490772872       -1.1668060629
 C         5.2864368827        2.5549205706       -0.2168415045
 C         6.4668673699        1.4021183025       -2.9248092691
 C         4.6052004636        3.2085866614       -3.2902137574
 O         2.9900403074        1.0852463576       -3.9595652599
 O         3.9393231060        0.5802418208       -0.7840226103
 C         4.7667418155        2.5345803883        1.2345510235
 C         3.5820766626        3.4594138165        1.5956232700
 C         2.5561391520        3.0273328837        2.7853690290
 C         1.8855580148        1.5606325125        2.3550073825
 C         1.5238571649        0.5309603770        3.3520888595
 O         3.2817176546        4.3544693515        0.9212699590
 O         1.6632852748        1.4102013535        1.1685150968
 C         3.1726002394        3.0111019970        4.1555314656
 C         1.4734328250        4.0390978970        2.8294415350
 C         0.3204877204        0.6095812641        4.3366155277
 C        -0.8483166720        1.5401861511        3.9724608275
 C        -1.7367182281        2.0247112668        5.1774805812
 C        -2.7961524438        0.8886475009        5.2558861531
 C        -4.2025453298        1.3409792641        5.0982926210
 C        -0.9116895278        1.9670575079        6.5273335508
 C        -2.2975384387        3.4292757150        4.9199482200
 O        -1.0478429731        1.8449242101        2.7876221004
 O        -2.4358694496       -0.2573676839        5.5422326249
 C        -5.2502069996        0.3724931208        5.5541392665
 C        -6.4848538594        1.0116029526        6.3282806302
 C        -7.3820288779       -0.0529080331        7.2692193275
 C        -8.8401262560       -0.4713929088        6.5929404937
 C        -9.9424735088        0.6911457228        6.4848247351
 O        -6.5959305496        2.2032621204        6.4828800029
 O        -8.9617499611       -1.6278900071        6.2285514233
 C        -6.5657264094       -1.2579710297        7.5118005300
 C        -7.5885454096        0.6999960278        8.6064538911
 H        -3.0107183641        2.4274941976       -9.9035150988
 H        -4.5435409645        2.2008215873       -9.5510210541
 H        -3.7486838464        3.2988149352       -8.5184029927
 H        -4.0160933067        2.2926816736       -5.5625553157
 H        -3.9685907994        0.5269042127       -4.6912558892
 H        -1.3956573918       -1.3486790965       -7.8980246364
 H        -3.0168146627       -1.5512617736       -7.4778147179
 H        -1.8515190155       -1.2596815007       -6.1964873821
 H        -0.9118085830        1.2704339765       -8.8728446952
 H        -1.0575279042        2.3197623504       -7.6119441954
 H         0.0017327442        0.8428248889       -7.4948585633
 H        -2.2163856019        2.6070072300       -3.7625684740
 H        -3.8803605282        2.9246029206       -3.2266049364
 H        -1.4099261195       -0.4384345103        1.1528561337
 H        -2.9275954633       -0.8372187174        0.2084753687
 H        -0.5617316935        2.7162772802       -0.5778925725
 H        -2.1074270708        3.5701761784       -0.8487924024
 H        -0.9253596098        2.9754482209       -2.1065946707
 H        -3.9792108165        0.9311606871        0.1732229029
 H        -3.0889561687        2.2360457539        0.8968131797
 H        -4.3178931338        2.3998840014       -0.4870027581
 H        -0.7339886096       -2.0801199436       -1.1324854478
 H        -1.8571275818       -2.9771158253        0.0058121121
 H         3.7425028034       -5.2083290032        0.2772083731
 H         2.4171523146       -5.8576966938       -0.4403995836
 H         1.8556151031       -5.2998607563        1.8160908777
 H         0.7372990409       -4.4078530872        2.6752119448
 H         2.0579386673       -3.6246331920        2.4325276619
 H        -0.5756640010       -5.9458930821        0.7712103917
 H        -1.0838611110       -4.8184992528       -0.3478274569
 H         0.4982906142       -5.6013270805       -0.6627169462
 H         4.3911909681       -3.9496853278       -1.7263366144
 H         4.3960621426       -5.5579897153       -1.9886787709
 H         3.6296729966       -1.3877203554       -5.4429893974
 H         2.8083114237       -1.7869318303       -3.8834981524
 H         4.4723649701       -6.2311316832       -5.6600421405
 H         3.8649836806       -6.4516238576       -3.9217228205
 H         5.4551020830       -5.8695522151       -4.2992100494
 H         2.6412231394       -4.1927613679       -6.4532079385
 H         2.1506050590       -5.5985296939       -5.5358157831
 H         1.5194132341       -4.0216372554       -5.0762035449
 H         5.5934212582       -0.5606048335       -4.3023849276
 H         5.0454752277       -0.8627722053       -2.7814424307
 H         6.4050489395        2.4029753569       -0.3032257062
 H         5.1654402216        3.4426310789       -0.6941107691
 H         7.1887990229        2.1647968900       -2.5914415694
 H         6.7159044685        1.0653471321       -3.8591548151
 H         6.5993661821        0.5693790100       -2.2007704409
 H         5.5177983305        3.8557074928       -3.1705728887
 H         4.5079151541        3.1400466859       -4.3052116439
 H         3.7867963743        3.5931568121       -2.6853942444
 H         4.2891729959        1.5836119988        1.4594514604
 H         5.6164747626        2.9007313250        1.9823820256
 H         1.5448834806       -0.4614166593        2.8585726230
 H         2.3581289396        0.4988851086        4.0149834527
 H         3.4373162818        3.9260374064        4.5991505159
 H         4.1360954357        2.4808610784        4.3493330533
 H         2.5318121103        2.5474091361        4.8468676555
 H         0.6226625048        3.6032464509        2.2266023456
 H         1.0833764530        4.0048359957        3.8187693899
 H         1.8494677574        4.9701256702        2.4979391958
 H         0.6368667641        0.9431855562        5.3663191298
 H        -0.1381347929       -0.4192691995        4.5166787183
 H        -4.3229102210        2.3320542903        5.5801747367
 H        -4.3454515874        1.4988547173        4.0350996407
 H        -0.2262421024        1.1393928118        6.6811900024
 H        -1.5767557204        2.0454703981        7.3713995814
 H        -0.4320765442        2.9337657674        6.6494365291
 H        -3.0532958716        3.4853883584        4.1561684565
 H        -2.7098735057        4.0288907096        5.8013494242
 H        -1.5605553540        4.0134135131        4.4733044171
 H        -5.6465249185       -0.1265355047        4.7574795590
 H        -4.8462806563       -0.3993396017        6.2108301800
 H        -9.9271616234        1.2149173226        5.5964463356
 H       -10.8714709799        0.1880374318        6.5584769810
 H        -9.8128812271        1.3605058175        7.2895514502
 H        -6.2407975660       -1.9437606918        6.7666736142
 H        -7.1428293737       -1.9632939881        8.0511820927
 H        -5.6399505468       -1.0234869268        8.0258595960
 H        -7.5189232891        1.8197021631        8.3258264327
 H        -8.6392677778        0.6239991147        8.9122458427
 H        -6.8994520062        0.2808246953        9.2689698748
 Na        1.6860357555       -0.2930522126       -0.7026063421
