155

 C        -2.8293256279        2.2587912656       -7.7723654513
 C        -3.2825974262        0.7714564227       -7.6564045760
 C        -2.4711551643       -0.2029431864       -6.7809733134
 C        -1.9968810108        0.6107736678       -5.5234163128
 C        -3.1751176908        1.0369602149       -4.6235894328
 C        -3.5156226258       -1.3075556903       -6.3298726077
 C        -1.3033507875       -0.8731575941       -7.5484870222
 O        -4.2999155949        0.4276000158       -8.2256555524
 O        -0.8265735126        0.6243219204       -5.2980757098
 C        -2.5520910575        1.5035289230       -3.3111454985
 C        -3.0344449040        0.7026777150       -2.0678638518
 C        -2.5061844317        1.1266876855       -0.6746393326
 C        -1.6668724094       -0.1317387495       -0.0899117174
 C        -2.5390830215       -1.1590862341        0.6770528689
 O        -3.9623649242       -0.1319909171       -2.1399844294
 O        -0.4881842771       -0.2946142989       -0.1629472662
 C        -1.5991878291        2.3719916047       -0.6451266742
 C        -3.8625917334        1.5335229256        0.0811517577
 C        -2.2562162708       -2.6313212691        0.3823440107
 C        -0.8965819978       -3.2751127650        0.5715523783
 C        -0.3691164898       -4.4706161665       -0.3907070855
 C         0.8493634641       -3.8050841367       -1.1962221740
 C         2.1468442711       -4.6212496823       -1.5150523690
 C         0.0713008866       -5.7398267698        0.4245375788
 C        -1.5834945591       -4.9179027724       -1.2066847051
 O        -0.1819771371       -2.8800313420        1.4522597656
 O         0.7262471073       -2.6788902818       -1.5182665594
 C         2.8959297396       -4.1791577379       -2.7527393022
 C         2.0685545618       -4.1935986463       -4.1277216624
 C         2.9428309768       -3.8677304422       -5.4581493892
 C         3.6981769318       -2.5387866933       -5.1329741115
 C         3.0067018107       -1.1837214589       -5.0769660976
 O         0.9469111148       -4.6276707178       -4.0584153239
 O         4.8756860553       -2.5632091279       -4.8334021059
 C         3.8608608160       -4.9903594067       -5.8640330656
 C         1.8354067782       -3.5046759645       -6.6408606456
 C         3.9522257803       -0.1449864383       -4.3470640235
 C         3.7535454601       -0.0211525312       -2.9007463717
 C         4.3469910449        1.2231815993       -2.2539238093
 C         4.7631701488        1.0365072390       -0.7600655081
 C         5.6361701858        2.1722971274       -0.1432052530
 C         5.4509680660        1.8272957643       -3.0649677985
 C         2.9522351705        2.1826734509       -2.1737459434
 O         3.1453404348       -0.8808685771       -2.2709814615
 O         4.5035648379        0.0816081508       -0.0935481617
 C         5.1278598859        2.6455959744        1.3326017329
 C         4.2023410560        3.8926813609        1.2707922285
 C         2.9144321732        3.4346505028        2.1554385351
 C         2.3299285865        2.1011821908        1.7418892138
 C         2.1382068659        1.0338583324        2.8184043996
 O         4.3731800890        4.9773061607        0.7680754884
 O         2.2170466244        1.7966214657        0.5737263115
 C         3.4544114500        3.7186795289        3.6659343482
 C         1.8282227393        4.6204790619        1.8740311984
 C         1.1660665417        1.4513402422        4.0019841995
 C        -0.3079349437        1.5177368576        3.6439200476
 C        -1.2440214172        1.9481288416        4.8844502463
 C        -2.7229366580        1.7062338873        4.4782359493
 C        -3.7276075696        2.0529946754        5.6263107962
 C        -0.8404186043        1.2769990920        6.1839357504
 C        -1.0411128668        3.4869473262        4.9252883055
 O        -0.7258061897        1.3545772674        2.5363264456
 O        -3.1221000951        1.4380916333        3.3541840680
 C        -4.5698204783        0.9324113991        6.2189232395
 C        -5.0058263387        1.4675161591        7.6034911814
 C        -5.9852957765        0.4065772460        8.3501396907
 C        -7.3147512070        0.4439496448        7.4177630108
 C        -8.8136555209        0.8121511394        7.8868638591
 O        -4.5136296204        2.3738205604        8.2334735394
 O        -7.1923496616        0.1692675671        6.2448250739
 C        -5.5112142314       -1.0357091103        8.2298099750
 C        -6.1142604153        0.9220641878        9.7650757833
 H        -2.6131112046        2.4761088552       -8.7850167443
 H        -3.3855580273        2.9801223969       -7.1851568908
 H        -1.7565468824        2.3685176743       -7.3402441202
 H        -3.8595362091        1.7217412498       -5.1602520641
 H        -3.8794444598        0.2314291445       -4.3758112902
 H        -4.0921762233       -0.9792657957       -5.4928674779
 H        -3.1022625007       -2.2948941746       -6.3044067273
 H        -4.1409097269       -1.4038681449       -7.1898892812
 H        -1.8413045795       -1.5419566890       -8.2764093889
 H        -0.5128540909       -0.1661646639       -8.0349571307
 H        -0.7165721071       -1.4146142845       -6.8116343053
 H        -1.5028396923        1.4199946294       -3.3869646346
 H        -2.6858263685        2.6126122316       -3.1796301509
 H        -2.2114245278       -1.0284490737        1.7806599307
 H        -3.5146244369       -0.8887167761        0.5039005880
 H        -1.9744880414        3.1436932214        0.0059801667
 H        -1.4810409224        2.8104950179       -1.6249503889
 H        -0.5370394861        2.1154067763       -0.5638800397
 H        -4.5648502879        0.6940530708        0.1059679407
 H        -3.6460424730        1.8880796858        1.0660208125
 H        -4.4064445907        2.3448720987       -0.4676093788
 H        -2.6995641024       -2.9272979947       -0.6305726996
 H        -2.9489647237       -3.1395671574        1.0080769251
 H         2.7500968382       -4.4005394138       -0.5525515030
 H         1.9108353314       -5.6640721262       -1.5623494244
 H         0.5492759618       -6.6470766818       -0.1564276076
 H        -0.7656399441       -6.1290769292        1.0108913103
 H         1.0329635934       -5.4545126517        0.8869613914
 H        -1.7740338159       -4.4366636911       -2.0939952508
 H        -1.3101398011       -5.9707975743       -1.4637242848
 H        -2.4388732867       -5.0132186978       -0.5620911065
 H         3.4740908770       -3.2762414946       -2.5434738822
 H         3.7020842546       -4.9385870017       -2.8554451459
 H         2.6880892233       -0.7827670488       -6.0394285337
 H         2.1371144654       -1.5304611278       -4.5831724874
 H         4.4434586356       -4.7451036619       -6.6959701555
 H         3.2784713962       -5.8615098030       -6.0994908068
 H         4.4797601868       -5.3022621583       -5.0160506591
 H         2.0925913766       -3.6022121549       -7.7151518104
 H         1.0496477257       -4.2640828760       -6.5237410447
 H         1.3534773236       -2.5436161839       -6.4002197926
 H         3.6562820185        0.8684344360       -4.7151507383
 H         5.0657751040       -0.4057792306       -4.4591948569
 H         6.6049951002        1.9308160003        0.0751791360
 H         5.6490586636        3.1293603060       -0.7544653579
 H         6.2218251576        2.1648995605       -2.3936844983
 H         5.2446809585        2.8060115274       -3.6666756268
 H         6.0477146139        1.2043462858       -3.6751477287
 H         2.9332731601        2.9456209076       -1.3762018774
 H         2.7474287041        2.6113449412       -3.2162564333
 H         2.0397926831        1.5810983252       -2.0766131368
 H         4.7685085925        1.8161242504        1.9525123162
 H         5.9241782240        2.7254437739        1.9608116519
 H         1.7952633296        0.1211912277        2.3222962826
 H         3.1159210159        0.8218987734        3.3130744740
 H         2.5614098938        3.8418774712        4.2827329137
 H         3.8866386996        4.7993083708        3.5550662430
 H         4.3328023876        2.9725260204        3.8928511275
 H         1.9362994312        4.7651501261        0.8398562424
 H         0.8388164379        4.2215580746        2.1299853669
 H         2.1246996913        5.4587871077        2.5257965271
 H         1.6394330957        2.2695240899        4.4843531631
 H         1.0709012446        0.7057322846        4.7573545827
 H        -3.1238011094        2.5611564126        6.4103204401
 H        -4.5017233805        2.7156443543        5.2040115896
 H        -0.7377279931        0.1928789385        6.2457794299
 H        -1.4898066716        1.6783818515        7.0030309959
 H         0.0923117364        1.6612180930        6.6812596467
 H        -0.9558120289        3.9324677624        3.8970215389
 H        -1.7067547248        4.1627303931        5.3954850730
 H        -0.1253038206        3.8443699884        5.4817675337
 H        -5.4076543487        0.7738106977        5.5010682784
 H        -4.1459878898       -0.0396225050        6.3143990539
 H        -9.0606170588        1.8113149683        7.4579444946
 H        -9.5726758571        0.0599593820        7.6834079714
 H        -8.8432361759        1.0682124950        8.9456820548
 H        -5.5078244160       -1.4792031939        7.2470740054
 H        -6.3625298305       -1.7061309608        8.5541993066
 H        -4.6372800615       -1.3717373904        8.8374184517
 H        -5.8373425145        1.9441408675        9.7975111122
 H        -7.1412787654        0.7175278211       10.0902662746
 H        -5.5733575306        0.3063043395       10.5287464337
 Na        1.7604967652       -0.4778131380       -0.4919660959
