155

 C        -2.5921598081        0.5900964500       -8.4760348621
 C        -3.2848165019        0.9433817014       -7.2412959926
 C        -4.5278561349       -0.0407798609       -6.6182126481
 C        -4.1080489969       -0.4312615032       -5.2532475840
 C        -3.9902803336        0.6305436761       -4.1721622514
 C        -5.7693150733        0.8809929506       -6.4452596185
 C        -4.9510980692       -1.1360048630       -7.6019683928
 O        -3.1231594186        2.0352859985       -6.7873342910
 O        -3.9514054302       -1.6618626751       -4.8859302783
 C        -3.5477337603        0.0790761608       -2.8134224822
 C        -3.7831715648        0.9963806723       -1.5461264882
 C        -2.6340823729        2.1724786193       -1.2395753306
 C        -1.4136589845        1.2827138433       -0.8529661880
 C        -1.4526193254        0.4759447492        0.4191468425
 O        -4.6075786370        0.7331883849       -0.7532627880
 O        -0.4932753350        1.1740402758       -1.6109517383
 C        -2.1735438818        2.9641625134       -2.4720879393
 C        -3.2807488978        3.0660793341       -0.0739928764
 C        -1.4615438968       -0.9671326760       -0.0102500798
 C        -0.2934792176       -1.7252549303        0.4945897759
 C         0.0487383679       -3.1222686650       -0.2047057242
 C         0.8754684816       -2.6887411257       -1.4788945351
 C         0.3327117934       -2.8997052022       -3.0183797120
 C         1.1418732989       -3.7715815691        0.6305993533
 C        -1.2141430420       -4.0114968371       -0.3416849565
 O         0.3304732599       -1.4500042958        1.4540842424
 O         1.9494439075       -2.0868347774       -1.3411540868
 C         0.7525145997       -4.2015988039       -3.6685892538
 C         0.0193222917       -4.5511478341       -5.0144235343
 C         0.4926059538       -3.9805986568       -6.3999654964
 C         1.8265711758       -3.1797948907       -6.2065765386
 C         1.8121546411       -1.6453633627       -6.0758120097
 O        -0.9924756549       -5.1871228892       -5.1109198606
 O         2.8115382943       -3.8296634700       -5.9379791578
 C         0.6677367057       -5.0738121018       -7.4850436887
 C        -0.6489332388       -3.0576823681       -6.9270208924
 C         3.0837521557       -1.1492595029       -5.3048972622
 C         2.7551098880       -0.0179128899       -4.1941312940
 C         3.8957802908        1.0032962953       -3.8971264109
 C         4.4339007172        0.7624513213       -2.4515272183
 C         5.4493014383        1.8631295767       -1.9778372763
 C         5.1029399866        0.8699691804       -4.8018280672
 C         3.2125627663        2.3694030168       -4.1100589556
 O         1.6717511447        0.0505164450       -3.6569323197
 O         4.0451161970       -0.1950072117       -1.7814613659
 C         5.4786439688        2.0649020636       -0.4391482863
 C         4.1177851130        1.6095756362        0.3125329027
 C         4.3293964195        0.7407640633        1.8295064535
 C         2.7673418954        0.1290391274        2.0945548659
 C         2.2984538890       -0.3510104505        3.4934244106
 O         3.0640913322        1.8502667303       -0.2004695018
 O         1.9611797517        0.0007140035        1.1925703718
 C         5.0243368614       -0.5126085106        1.1433486316
 C         5.1523304580        1.3375481499        2.9399802742
 C         2.0913789928        0.8038624311        4.5645780883
 C         0.6997811842        1.3060045071        4.3562019388
 C         0.1193553373        2.4585179035        5.5166265473
 C        -0.4657829965        1.5701463550        6.7281583560
 C        -1.4455619243        2.1377959939        7.7888108279
 C         1.2204624236        3.5803563500        5.9255106122
 C        -0.9503127616        3.2810946474        4.7112514235
 O         0.0430041100        0.9683656534        3.3855304121
 O        -0.1080125102        0.4058474960        6.8805484126
 C        -2.3613714129        0.9730482777        8.4260370917
 C        -2.9841832040        1.4258540828        9.7828175511
 C        -4.5606741435        0.9450225374       10.1978675353
 C        -5.5049464904        1.9957556495        9.4891219249
 C        -5.2713741793        3.4776965760        9.9190096379
 O        -2.4419791319        2.1193003190       10.5652265705
 O        -6.4511505938        1.6192833105        8.8253844353
 C        -5.0519342222       -0.4996079005        9.7345481820
 C        -4.6293637732        1.0893612925       11.6694264070
 H        -3.3331765789        0.0347622303       -9.1345067303
 H        -2.1888746648        1.5579977347       -9.0018488985
 H        -1.7238103730        0.0697785776       -8.2734707524
 H        -3.3674231592        1.3697278779       -4.6320682623
 H        -4.8750208703        1.2822953656       -4.0239584756
 H        -5.6345450566        1.8155905046       -5.8205819655
 H        -6.6112760023        0.2092637541       -6.0415224756
 H        -6.1450372767        1.2759112809       -7.4963620671
 H        -5.4020247157       -0.6330958608       -8.4852007692
 H        -4.1213958550       -1.7575356940       -7.8422049341
 H        -5.7560482401       -1.8259041998       -7.1747008714
 H        -4.0974117004       -0.8666495872       -2.5801255596
 H        -2.4578114883       -0.2457676454       -2.7207570415
 H        -0.7112313530        0.7445389867        1.0442825774
 H        -2.2545980940        0.7017091322        1.0720846073
 H        -1.1134551248        3.1543953898       -2.3708494521
 H        -2.7910795435        3.8546981877       -2.5190792754
 H        -2.2260210842        2.4007579880       -3.4232475529
 H        -3.9669260520        2.4658744312        0.5182310683
 H        -2.6242880155        3.5003089550        0.6640917183
 H        -3.9984904807        3.8289190075       -0.4738609999
 H        -1.3661419141       -0.9954361594       -1.0881272909
 H        -2.4947425166       -1.4437242880        0.2658449625
 H        -0.7023729051       -2.7519343088       -3.0521133614
 H         0.8500004309       -2.0677507477       -3.6346215396
 H         1.6414817551       -4.4229534760        0.0290889645
 H         0.8188204335       -4.3646253350        1.4546844959
 H         1.8360090333       -3.0404772383        1.0203265049
 H        -2.0681197699       -3.5646643295       -0.9398713777
 H        -1.1523147773       -4.9658947300       -0.8142390051
 H        -1.5977549320       -4.1901111717        0.6885864663
 H         1.8500034011       -4.1111030867       -3.9231814161
 H         0.4582166190       -4.8928076821       -2.9289107654
 H         1.7181452389       -1.3700983812       -7.1140022985
 H         0.8602561641       -1.3880671385       -5.5791344374
 H         1.0286481983       -4.5082821040       -8.3140395839
 H        -0.3175742940       -5.5254967314       -7.4949489201
 H         1.3428480250       -5.9232588310       -7.2379829971
 H        -0.3977195757       -2.6949101556       -7.9682466200
 H        -1.6715919406       -3.4445465963       -6.9723198094
 H        -0.5724089748       -2.1908050121       -6.2842733340
 H         3.8651336904       -0.8004990860       -5.9952295454
 H         3.5640190129       -1.8682123807       -4.7373856893
 H         6.4252645836        1.7137949207       -2.1745779993
 H         5.2335434834        2.8582810517       -2.5556939846
 H         5.8022818900        1.5368795052       -4.3767996313
 H         4.6869548717        1.0244384445       -5.7058099895
 H         5.6093154745       -0.1070217365       -4.6569700265
 H         4.0017636267        3.1799774592       -3.9152031616
 H         2.8402038937        2.5177329153       -5.0703299710
 H         2.3883665840        2.5731059016       -3.4799351153
 H         6.3145732114        1.7064657644        0.0640982203
 H         5.7812872258        3.1584415461       -0.1255407433
 H         1.3179841112       -0.8739404913        3.4942188048
 H         3.0722844437       -1.0124325295        3.8725956509
 H         6.1036463840       -0.6271430521        1.3124507530
 H         4.9445162409       -0.6687616369       -0.0139076053
 H         4.8870806548       -1.5572599002        1.6084874441
 H         4.6436440556        2.1533030411        3.5451522293
 H         5.4948271071        0.5164493079        3.5815074419
 H         6.0558375732        1.8489623733        2.5352551589
 H         2.8354282243        1.5821289085        4.4261376177
 H         2.1725187106        0.5310922195        5.6275441574
 H        -0.8831919349        2.3962960603        8.6650722563
 H        -2.0762713192        2.9186915058        7.4996841097
 H         2.2964607175        3.3212954504        5.9400539398
 H         1.0117757330        4.0655159654        6.8758340078
 H         1.2182730784        4.4502963758        5.1929874579
 H        -1.1650592825        4.1664944277        5.2069308929
 H        -0.4084793416        3.6027879074        3.8463096850
 H        -1.7176465486        2.6354187131        4.4595832286
 H        -3.1351089383        0.9108155092        7.6903216360
 H        -1.7604918632        0.0182478168        8.5647942222
 H        -5.6050514908        3.7020653548       10.9773275076
 H        -4.1508334035        3.7019862531        9.8580880243
 H        -5.8458101140        4.0606905184        9.1272648809
 H        -6.1506648069       -0.5668747497        9.7625889826
 H        -4.7200011829       -1.3127818129       10.4720556641
 H        -4.8876388784       -0.7678864410        8.6342513892
 H        -5.5713021449        1.4986606959       11.9884704889
 H        -4.6142851654        0.1215362535       12.2171195930
 H        -3.8923930685        1.8410916575       12.1569962484
 Na        1.5239769042        0.2387462607       -1.0474551838
