155

 C        -3.5485391590        0.6816293539       -8.9139737205
 C        -4.0199537455        1.1784465067       -7.4229979150
 C        -5.3198158757        0.5864130573       -6.7119264071
 C        -5.0347080211       -0.1277050050       -5.2335720479
 C        -5.1339266339        0.6243705628       -3.9144047537
 C        -6.5181812929        1.7368755381       -6.7229312999
 C        -6.0813734111       -0.4965545731       -7.5992372242
 O        -3.4461004028        2.0832661505       -6.8300870509
 O        -4.6932899300       -1.3656855350       -5.4415323604
 C        -3.9056836720        0.4957341244       -2.9685183611
 C        -3.8947160600        1.6567821222       -1.9642050663
 C        -2.5657941349        2.2389992830       -1.3014147784
 C        -1.6946539440        1.0487271894       -0.8107601504
 C        -2.1910275581       -0.0780412308        0.1335551315
 O        -4.9967667634        2.1380790654       -1.6945493564
 O        -0.5900436315        0.9386915081       -1.2263422061
 C        -2.0052106158        3.1090858229       -2.4663045597
 C        -2.9013200429        3.0853374831       -0.0147308116
 C        -1.8037833446       -1.4848260676       -0.3291464552
 C        -1.2125387441       -2.4861136715        0.5908856291
 C        -0.2744103839       -3.6935349056       -0.0618317007
 C         0.4434720496       -3.0584589327       -1.2870314571
 C        -0.1235164830       -3.3928615322       -2.6593364550
 C         0.7651540749       -4.0139652068        1.0839124715
 C        -1.2451586367       -4.8892426109       -0.3872862086
 O        -0.9066644076       -2.1654468863        1.7445760939
 O         1.3834000927       -2.2751289944       -1.0681616008
 C         0.5783070892       -4.5045301806       -3.3254660405
 C        -0.1593418071       -4.7604555789       -4.7315029184
 C         0.1119164000       -3.7943944595       -5.8973094974
 C         1.6470025509       -3.2891890450       -5.8201684774
 C         2.0842969117       -1.7499895882       -5.8188493130
 O        -1.0341855630       -5.5827953743       -4.8600499374
 O         2.4803568783       -4.2115481568       -5.8326840268
 C         0.0174334427       -4.5564074103       -7.1732321924
 C        -0.8807630070       -2.5959483896       -6.0276019983
 C         3.0850191268       -1.3111940913       -4.5558245475
 C         2.5170980216        0.0444176199       -3.9076666152
 C         3.4859516877        1.2058770248       -3.6194161576
 C         4.3260876770        0.7846793297       -2.4592695926
 C         5.6533028616        1.6034367632       -2.2509079437
 C         4.5379966775        1.5392327615       -4.8219508747
 C         2.6161923629        2.4517277452       -3.2575627620
 O         1.3435232495        0.0859864652       -3.5466055288
 O         4.0076665215       -0.1709333242       -1.7060744857
 C         6.1507573148        1.4104073959       -0.7620295962
 C         4.9096734089        1.3867988782        0.1230256348
 C         4.8825271438        0.3834800753        1.4931998630
 C         3.2798700889        0.2732309348        1.9243186415
 C         2.8534096733       -0.1076771350        3.2907626787
 O         4.0335948738        2.2712584189        0.0724308113
 O         2.4772948758        0.6119550234        1.1087000020
 C         5.3055397009       -0.9882243758        1.0704260446
 C         5.6286438300        0.8159491076        2.7397045457
 C         2.4319066925        1.1245404447        4.1012598424
 C         0.8620252581        1.1474116391        4.0650520516
 C         0.2088462612        2.1217331526        5.2362834909
 C         0.2657385589        1.1549976362        6.4641558502
 C        -0.0035762795        1.5218267473        7.9162377968
 C         0.8773965931        3.4980006032        5.0416801621
 C        -1.3792244418        2.3758599793        5.1909424262
 O         0.2550256021        0.7300139977        3.0832224540
 O         0.2523486828       -0.0164880196        6.1342528712
 C        -1.4500750808        1.1811286208        8.4509652718
 C        -1.9554916139        1.8049195088        9.7862434515
 C        -3.3733180066        1.3724679737       10.3933490026
 C        -4.3717401695        2.2466780241        9.4999490569
 C        -5.5188589100        3.0535369166       10.2391825567
 O        -1.3039847626        2.7365723861       10.2555760323
 O        -4.2725570292        2.3341600485        8.2725415116
 C        -3.7074319091       -0.1312953335       10.0777572388
 C        -3.4816715688        1.7116550394       11.7997179258
 H        -2.5231344991        0.7391782900       -8.8704175090
 H        -3.9854894552       -0.1890638928       -9.3547427910
 H        -3.7763760006        1.5096429109       -9.6592463484
 H        -5.3050416380        1.5932897244       -4.3613703625
 H        -6.0493705721        0.2650707373       -3.4270997073
 H        -6.2216193287        2.5227111840       -6.0829786232
 H        -7.3320895740        1.2941024373       -6.1938774603
 H        -6.8166759665        1.9874687686       -7.6904491195
 H        -5.9274504780       -0.2924226214       -8.6257339537
 H        -5.6694069801       -1.5339461674       -7.4165455603
 H        -7.0669269069       -0.3959069854       -7.2924239818
 H        -3.9657301533       -0.4410858556       -2.4497940385
 H        -2.9716069336        0.5706474966       -3.5765431547
 H        -1.7691963454        0.0759119401        1.1270184349
 H        -3.3193215474       -0.0877328732        0.2314436185
 H        -1.4338805800        3.9842512717       -2.0519349355
 H        -2.7833434786        3.5704771003       -3.0717402670
 H        -1.3343982096        2.4753642616       -3.0322984340
 H        -3.0700390915        4.1849068925       -0.1455142619
 H        -3.8445865005        2.7565111444        0.3288971214
 H        -2.2412579457        2.9026374935        0.8471883086
 H        -0.9841146425       -1.2478737268       -0.9803337627
 H        -2.6026620018       -1.7691377531       -1.1038237515
 H        -1.1327637605       -3.6809664529       -2.5896665525
 H        -0.1464395881       -2.4134250629       -3.2243698047
 H         1.4843530479       -4.8865365459        0.7837478206
 H         0.1801685500       -4.3281120009        1.9155575163
 H         1.4303176514       -3.2567275792        1.3870455007
 H        -1.7072216330       -4.9349039177       -1.3827410961
 H        -0.7711048694       -5.8150858129       -0.2160672428
 H        -2.1042624930       -4.9529676246        0.2692469194
 H         1.7134656558       -4.3084211410       -3.4469303049
 H         0.7454545380       -5.3922101716       -2.8099752970
 H         2.5832813419       -1.5976970069       -6.7348245248
 H         1.2121050397       -1.0432476260       -6.0961881233
 H        -0.0685364771       -3.9157689052       -8.0497586791
 H        -0.9276458887       -5.0972962797       -7.1122933755
 H         0.9314067384       -5.1376240889       -7.1621445862
 H        -0.3578843891       -1.8060160128       -6.5900478956
 H        -1.8409271805       -2.8358805114       -6.4274099072
 H        -1.1031152622       -2.1880556354       -5.0251750572
 H         4.1992709376       -1.2998281067       -4.8913958892
 H         3.0189220158       -2.1667366933       -3.8732977603
 H         6.4364183504        1.0531493817       -2.7556392632
 H         5.5306792275        2.6839538833       -2.3621217610
 H         4.6682032690        2.5633671804       -4.5187985077
 H         3.9329365730        1.5890342401       -5.8190947686
 H         5.2503291715        0.8172028860       -4.7766274270
 H         3.1530430042        3.3544795053       -3.4592397085
 H         1.6924967858        2.4697371360       -3.8630493232
 H         2.4426478001        2.4948915765       -2.1150482882
 H         6.6958661327        0.3429624294       -0.6249924489
 H         6.6548474949        2.3010309296       -0.4837571383
 H         1.9629441205       -0.8110225165        3.1505511466
 H         3.6609805137       -0.6093016482        3.9074204930
 H         6.3643612116       -1.2732835261        1.3186386994
 H         5.4323729559       -1.3601630332        0.0376274431
 H         4.5853121407       -1.7157364000        1.4193062864
 H         5.2974863787        1.6539293400        3.3865659792
 H         5.7560493149        0.0719502878        3.4902050432
 H         6.6230702550        1.0102845541        2.4194174297
 H         2.8115916790        1.9937425423        3.6934178014
 H         2.5497767416        1.0141567266        5.1603619806
 H         0.7386675449        1.0993431075        8.6260335374
 H         0.1010823595        2.5695056876        8.1546928277
 H         1.8292380656        3.4560241684        4.4686329875
 H         1.2019538035        3.9991581263        5.9308081043
 H         0.2357820728        4.2104818643        4.5458095892
 H        -1.4786336172        3.1451848176        5.9584432310
 H        -1.5652825292        2.6749872524        4.0986129538
 H        -1.9691193736        1.5014648957        5.5631264510
 H        -2.3116250621        1.2555370968        7.7604482601
 H        -1.4876304811        0.0318608267        8.6781384425
 H        -6.0577041656        2.5179865986       10.9850981864
 H        -5.0559647007        3.8443086148       10.7015138463
 H        -6.1535662928        3.4295263889        9.5117307829
 H        -4.6161006918       -0.2845340716       10.6041048950
 H        -2.9322038839       -0.7967406388       10.4685489810
 H        -3.7153143161       -0.3637376115        9.0385411730
 H        -4.5645142123        1.6122857207       12.1413226987
 H        -2.8655298822        1.2649764338       12.5555579157
 H        -3.2762207620        2.7365746559       12.0096121607
 Na        1.4908927545        0.2110019182       -1.2530523714
