155

 C        -5.3825833341        0.6747423344       -9.0545891769
 C        -5.2322569796        1.4198101347       -7.8108007467
 C        -6.1113260414        1.1312927824       -6.4023419718
 C        -5.0286136112        0.9344163201       -5.1693585465
 C        -4.2919935080        2.1310617311       -4.3672074239
 C        -7.1831536859        2.1420361885       -6.1047755607
 C        -6.7735484525       -0.2248551651       -6.5280324595
 O        -4.2419315036        2.2106096716       -7.7483577537
 O        -4.9116391316       -0.2449379621       -4.7556666155
 C        -3.3952052893        1.5547290720       -3.3073754020
 C        -3.6340316858        2.2519800346       -1.9796038446
 C        -2.4830558799        2.0855300148       -0.8666082399
 C        -2.0227316346        0.6733375679       -0.8926740457
 C        -2.8988880536       -0.3409503422        0.0238321309
 O        -4.5494001209        2.9680218859       -1.7779420748
 O        -0.9843966196        0.4580934325       -1.5318889599
 C        -1.3520713232        3.0581241818       -1.1986803094
 C        -2.9986287418        2.5971946690        0.4902834640
 C        -2.6794158723       -1.8062826207       -0.4151749712
 C        -2.2740169009       -2.8336075929        0.7246166111
 C        -1.2441060021       -4.1368324774        0.2702676599
 C        -0.2367112005       -3.5475284174       -0.8279512554
 C        -0.4793838108       -3.8659320904       -2.3579253240
 C        -0.4478269003       -4.5671001572        1.4744344236
 C        -2.0312386535       -5.3266376972       -0.2949822350
 O        -2.6731191820       -2.7006087232        1.8240968151
 O         0.5276923681       -2.6818271363       -0.4850983750
 C         0.4385830861       -4.8535348299       -3.1433803594
 C         0.0007190473       -5.0346955821       -4.7318107776
 C         0.1900546712       -3.7595069312       -5.7172095145
 C         1.2414289258       -2.7753037392       -5.3542950159
 C         1.0786230402       -1.5230517600       -6.1591219898
 O        -0.1861693286       -6.1543538808       -5.1205331730
 O         2.2577516951       -3.0328621729       -4.6822859645
 C         0.6717489248       -4.2544317024       -7.1685089904
 C        -1.2760847356       -3.0330597728       -5.6725357952
 C         2.2034350669       -0.4544862415       -5.8112118754
 C         2.0589089091       -0.1251279170       -4.3889650967
 C         3.0486631488        1.1118904334       -3.8836563151
 C         4.0421052418        0.5820276007       -2.6469059441
 C         5.5115378729        0.9054050041       -2.5199713530
 C         3.7206570598        1.8186088426       -5.0822823338
 C         2.0261496649        1.9925135106       -3.1479995916
 O         1.1832225028       -0.4316142582       -3.6201843420
 O         3.5633159117       -0.2075661382       -1.8254652861
 C         6.1051527593        0.0982119720       -1.2165977807
 C         5.7331240792        0.9760964974        0.0575193968
 C         5.3463976556        0.2604081582        1.2946136451
 C         3.7596623694        0.3918433467        1.4611879424
 C         3.0130761834       -0.2018722007        2.6720195251
 O         5.8328385439        2.1731797621       -0.0233969768
 O         3.0476373308        0.6709866264        0.5333722492
 C         5.7165545036       -1.2880794575        1.1866453251
 C         6.0499841748        0.8587252181        2.5515633185
 C         2.2934095051        0.7975299526        3.6048581655
 C         0.8178851560        1.0714987875        3.6584599188
 C         0.2126469786        1.9544575550        4.8070060084
 C         0.5813699367        1.4679790424        6.3200637305
 C        -0.1166395812        2.1822539426        7.4712607237
 C         1.0197315810        3.3744688145        4.5849654821
 C        -1.4007354696        2.0584302171        4.7616196663
 O         0.0313751514        0.7291207053        2.7480507368
 O         1.4140001219        0.6189733315        6.5670562041
 C        -0.3579037011        1.1602841085        8.6200496692
 C        -0.5471616481        1.9075471100        9.9378839714
 C        -2.0407659755        1.9320176043       10.6392328210
 C        -3.1106986854        2.3488179597        9.4807133481
 C        -4.6003003831        2.0279562666        9.5289202133
 O         0.4214707432        2.1592452606       10.6165715644
 O        -2.6385624393        3.1037536300        8.6194407318
 C        -2.2526841930        0.4984572580       11.2050719890
 C        -2.1555125029        3.0435368250       11.7031751160
 H        -4.8833048691       -0.2575026550       -9.1466910202
 H        -6.4522106466        0.5607862163       -9.2574894880
 H        -5.0270266016        1.4053339605       -9.8558572323
 H        -3.6522890938        2.6861771612       -4.9875448186
 H        -5.0915445062        2.6103162838       -3.8230653701
 H        -6.9183298687        3.1928822234       -6.1390877487
 H        -7.8345798626        1.8327208391       -5.2564704830
 H        -7.9532807487        2.1269879203       -6.8410319692
 H        -6.6799751339       -0.4183685549       -7.5522696344
 H        -6.2963148650       -1.0285885352       -5.9905763754
 H        -7.7806408941       -0.3782319529       -6.3562670173
 H        -3.5938414895        0.4593686306       -3.1942303561
 H        -2.3314406239        1.6156422717       -3.4289506357
 H        -2.6497180879       -0.2527516785        1.0089474465
 H        -3.9460860383       -0.1630616055       -0.1055591995
 H        -0.4892169118        2.6994058519       -0.6651860544
 H        -1.6229262799        3.9952972359       -0.7530731083
 H        -1.0779911251        3.2172495671       -2.2344250800
 H        -3.4137133809        3.6031015788        0.4440576614
 H        -3.7464595630        1.8629626585        0.7221277452
 H        -2.2942744619        2.6531971792        1.3622989299
 H        -1.7736267341       -1.6345799354       -1.0330752159
 H        -3.3965700848       -2.3370923901       -1.1253225395
 H        -1.5056022430       -4.0069143735       -2.5508734129
 H        -0.3478332863       -2.8356090359       -2.9284978675
 H        -0.3626762080       -5.6873184827        1.4060031805
 H        -1.0001925534       -4.3960762985        2.3575068616
 H         0.4801591296       -4.0835461323        1.5318068638
 H        -2.9348410365       -5.0166354549       -0.8134222777
 H        -1.4133051427       -5.8456375646       -0.9684293269
 H        -2.3523700951       -5.7965592202        0.5878266009
 H         1.5561491648       -4.5552441796       -3.1358621716
 H         0.3175065804       -5.8363995840       -2.8836888766
 H         1.0455792398       -1.8198968451       -7.1501209090
 H         0.1554920761       -1.0655151986       -5.8353018112
 H         0.0730627961       -3.6470682328       -7.8001483294
 H         0.3855751308       -5.2842155610       -7.2332798464
 H         1.7266700695       -4.1905290611       -7.4799612365
 H        -1.7182921574       -2.8483215870       -6.6803691333
 H        -1.9833403960       -3.7664090792       -5.2819093431
 H        -1.2198407369       -2.1712049035       -4.9928088921
 H         2.1007953644        0.4430925575       -6.4324042131
 H         3.1826616543       -0.9141859612       -5.9699584003
 H         5.9806460293        0.7275222379       -3.4570794128
 H         5.8186316070        2.0147450623       -2.2116227266
 H         4.4214960996        2.6011349723       -4.8104379188
 H         2.7746411073        1.9978049243       -5.7471138720
 H         4.2932348827        1.0987036362       -5.4999693841
 H         2.3577121508        3.0298737077       -3.1950645297
 H         0.9620689179        1.9771960485       -3.4225691286
 H         2.0131142949        1.6673457400       -2.0275276576
 H         5.7407142212       -0.9911215240       -1.0597688746
 H         7.0652500287        0.1145112542       -1.3903159989
 H         2.2262945095       -0.9187972205        2.1871380933
 H         3.6979228124       -0.8101158525        3.3421141004
 H         6.8038539127       -1.4549200260        0.7110165644
 H         4.9360574881       -1.8251367660        0.6043104166
 H         6.0631383782       -1.9063785377        2.0226893655
 H         6.0581392368        1.9728197957        2.5364063149
 H         5.5248203064        0.4121434577        3.3117568505
 H         7.0541722478        0.5922294963        2.7635939385
 H         2.8099803156        1.6862951312        3.6925382959
 H         2.4639086966        0.3831002804        4.5387850260
 H         0.5716929309        2.9611152934        7.8522020695
 H        -0.9560880670        2.6501014368        7.0840968864
 H         0.2508074438        4.2117711962        4.6518589370
 H         1.5545817882        3.3267908159        3.6909193807
 H         1.7242747922        3.5454636474        5.4143563122
 H        -1.7047407577        1.7331285845        3.7487281761
 H        -1.8686459173        1.2917839273        5.4280388179
 H        -1.5969931771        3.1538580377        4.7429829931
 H        -1.3571304000        0.5923275807        8.4186202303
 H         0.4973052627        0.3786429593        8.5967795162
 H        -4.9496245802        1.4079201878       10.3427762050
 H        -5.1439379771        2.8976925641        9.3409021581
 H        -4.7332431160        1.5030760100        8.6155816384
 H        -3.1228511791        0.4289624809       11.7490610174
 H        -1.3433598252        0.1846128199       11.7083760003
 H        -2.5161790291       -0.1299668517       10.4108648326
 H        -3.1256538868        3.2923816493       12.1613742760
 H        -1.6769674799        2.7061164529       12.6106744315
 H        -1.8320890310        4.0685062813       11.4924079246
 Na        1.2479111065       -0.8669653682       -1.2133280763
