155

 C        -6.7087736324        1.2457237419       -7.8527737749
 C        -5.6512528847        1.3633193126       -6.7937381913
 C        -6.0082889615        1.5154027390       -5.2441064375
 C        -4.7240780841        1.6524610286       -4.2936412568
 C        -4.3388561013        3.0584953265       -3.9571900165
 C        -7.0453525089        2.7243704531       -4.9926515809
 C        -6.7107576092        0.1477522425       -4.9244789620
 O        -4.4845526721        1.6268226451       -7.1242204323
 O        -4.1699958819        0.6568307513       -3.8584526210
 C        -2.9761639078        3.0184162742       -3.2480684999
 C        -3.4241631111        2.3048193022       -1.8168507999
 C        -2.4008149436        1.8526479086       -0.7145400499
 C        -2.4898223653        0.3228180918       -0.7449454842
 C        -3.8243514500       -0.3028153609       -0.5446444929
 O        -4.6223109710        2.2762194218       -1.7375161029
 O        -1.5237562073       -0.4509232828       -0.8222491145
 C        -1.0839266412        2.6404115087       -0.6846293862
 C        -3.2245089054        2.3554213402        0.5947575249
 C        -3.9223855116       -1.7873942603       -0.8753702084
 C        -3.0364017738       -2.4618487609        0.1200664788
 C        -2.0132753636       -3.6635583526       -0.3161845404
 C        -0.8923555928       -3.0007550230       -1.0506811398
 C        -0.6336483862       -3.2910884043       -2.5476081520
 C        -1.4917378446       -4.3570219814        0.9784054312
 C        -2.9101195087       -4.6739890688       -1.1786435395
 O        -3.1133594223       -2.1786751524        1.3123816161
 O         0.1035637112       -2.5649378533       -0.4336812056
 C         0.4656457378       -4.3589341577       -2.6633353815
 C         0.6467701024       -4.9670284470       -4.0788541912
 C         0.4802148687       -4.1039081852       -5.5476399144
 C         1.1112628801       -2.6367479253       -5.4241213857
 C         0.2345750204       -1.3846765110       -5.5779985455
 O         0.8933750206       -6.1488239587       -4.1181106459
 O         2.3341181318       -2.5638837634       -5.6063057740
 C         1.2271311238       -4.8932747923       -6.6235241015
 C        -1.0809718149       -4.1866123372       -5.9574609619
 C         0.9596993058       -0.0849758637       -5.4347972253
 C         1.4224680149        0.2411601217       -4.0893349936
 C         2.8135272523        0.9079516504       -3.7154777059
 C         3.6452826705       -0.4259580619       -3.1285203349
 C         5.1733149913       -0.4356832514       -3.1287718470
 C         3.6933712871        1.2088007906       -4.9399653424
 C         2.7529539860        1.9426073254       -2.4309812243
 O         0.5125002400        0.4731942835       -3.2778742937
 O         3.1297747333       -1.4395244214       -2.7820237094
 C         5.4872027971       -0.9234896200       -1.6294735450
 C         5.3236079525        0.2570226330       -0.6518165044
 C         5.0463315456       -0.0670960237        0.8280619322
 C         3.5406029301       -0.3248968869        0.9944191839
 C         2.7300075335       -0.2916814401        2.2892347432
 O         5.2903748524        1.3920764235       -1.0304225249
 O         2.9025217086       -0.3989136268       -0.0433300597
 C         5.9100647647       -1.3972971812        1.3291062356
 C         5.4863273862        1.1217802643        1.7380494537
 C         1.8985016002        0.9935240214        2.3776431771
 C         0.5697389042        0.9550756922        3.3037088629
 C         0.3235855618        2.0288801363        4.5742860294
 C         0.9034292921        1.2638360295        5.8763491217
 C         0.9742208443        2.1853044266        7.1737241669
 C         1.1222728088        3.4260731760        4.5028177995
 C        -1.1743854208        2.2187064034        4.8187789744
 O        -0.3739778103        0.2032248344        3.1416796011
 O         1.2715750227        0.1120752072        5.7991954295
 C         0.9016570822        1.4011429175        8.5890672796
 C         0.7934130800        2.3941359615        9.7441214431
 C        -0.5988389507        2.4157717110       10.4632231502
 C        -1.8688202640        2.4202091827        9.5278415820
 C        -3.1070555410        1.5310239876        9.6918320875
 O         1.6809122576        3.0459826577       10.2212849775
 O        -1.7959359652        3.1698822160        8.5469593534
 C        -0.5455445710        1.0145385315       11.3502004261
 C        -0.6870080270        3.6433738710       11.4137231647
 H        -7.6379032239        0.8512414338       -7.4510090629
 H        -6.7664240018        2.2657891236       -8.2518583083
 H        -6.1421759513        0.4954918922       -8.5520632616
 H        -4.2990176861        3.5688962763       -4.8990782237
 H        -5.1454199111        3.5340673105       -3.4391601351
 H        -6.9090535924        3.6944008320       -5.6159863868
 H        -6.9669842621        3.1810515892       -3.9709656249
 H        -8.0429570471        2.3461291661       -5.2265678522
 H        -7.3654859874       -0.1707713319       -5.6872210942
 H        -5.9172130039       -0.5460210068       -5.0246419195
 H        -7.2589507418        0.1674993097       -4.0399633568
 H        -2.1218351249        2.7040580067       -3.8622242888
 H        -2.7023465301        4.0690102410       -2.9219809699
 H        -4.1946986088       -0.1995178836        0.4171786470
 H        -4.5879422248        0.2331332881       -1.0749365532
 H        -0.5300635425        2.5752546989        0.2396337366
 H        -1.4476508622        3.6760998091       -0.8549264848
 H        -0.4220588924        2.4244360963       -1.5472845436
 H        -3.3842371615        3.3416174624        0.3225239221
 H        -4.2604973200        1.9967082682        0.6416106493
 H        -2.6388865915        2.2492308701        1.4953672635
 H        -3.7846326367       -1.9896859316       -1.9956301761
 H        -4.8516299680       -2.1255697270       -0.4974322792
 H        -1.5127525455       -3.7522764550       -3.0579815679
 H        -0.2870866003       -2.3477963524       -2.9349476813
 H        -0.9008908704       -5.2027675648        0.6647574489
 H        -2.3343860108       -4.7008336960        1.5417965130
 H        -0.9211926757       -3.7062612887        1.5649957137
 H        -3.1103327748       -4.0429655609       -2.0323325402
 H        -2.5520756390       -5.6339115245       -1.3199733278
 H        -3.7310293299       -4.8650951926       -0.5309710270
 H         1.4302724050       -3.9668764514       -2.2727500505
 H         0.0978884623       -5.2366201168       -2.0697357635
 H        -0.2122320354       -1.4098974304       -6.6584619250
 H        -0.6686990443       -1.3236253099       -5.0489605810
 H         1.1912161747       -4.3394716718       -7.5441897665
 H         0.7583275987       -5.8147920919       -6.9353258531
 H         2.2796702700       -4.9781211829       -6.3582830188
 H        -1.3147598341       -3.5120049338       -6.7999266463
 H        -1.3373533358       -5.2320822775       -6.2380002665
 H        -1.7015194276       -3.8259004167       -5.1326556501
 H         0.3470697758        0.6956313343       -5.7706059248
 H         1.7279830747       -0.1690939359       -6.2062376433
 H         5.7084414068       -1.0962791984       -3.8607851988
 H         5.6528484803        0.4690948506       -3.4045961435
 H         4.5044147389        1.8796745231       -4.6715518044
 H         3.0628016965        1.7752085803       -5.7084646906
 H         4.0243531337        0.3834059168       -5.4546008176
 H         3.6253816782        2.6292771143       -2.5191324861
 H         1.8568499097        2.5826073467       -2.4937646814
 H         2.7900983730        1.4897598868       -1.3823691538
 H         4.7155877210       -1.8141682173       -1.3535854384
 H         6.4046552224       -1.4669766021       -1.5091631365
 H         2.0379664902       -1.1673855377        2.5275791952
 H         3.4635334657       -0.3889636365        3.1308044936
 H         7.0411575680       -1.3892675850        1.4866025481
 H         5.9942930942       -2.0119876023        0.4709236243
 H         5.4552021324       -2.0342527176        2.0774769743
 H         5.1380458445        2.1044634779        1.3825831675
 H         5.2188886797        0.9337579240        2.7591136550
 H         6.5109182169        1.1112918332        1.5118478677
 H         1.5243232109        1.2063732299        1.4212304790
 H         2.5649854685        1.7591937076        2.6968660001
 H         1.8360118760        2.7912687104        7.1214697935
 H         0.0426726239        2.8342455461        7.1915471260
 H         2.2259681423        3.1566313319        4.4911629391
 H         0.9382801905        4.0535755128        5.3349907013
 H         0.7871830260        3.9274052045        3.5775939271
 H        -1.5539388177        2.8878732854        4.0187569836
 H        -1.7229154898        1.2736856252        4.8269325186
 H        -1.2579709120        2.5619157592        5.8829551722
 H        -0.0007871103        0.7023928921        8.5774576818
 H         1.8291093604        0.7843561083        8.7750994222
 H        -3.3725314923        1.1999492120        8.6763977885
 H        -3.0376149787        0.6711092360       10.3096702327
 H        -3.8301518471        2.2132276220       10.1684933890
 H        -1.2341143723        1.0933200016       12.1510095321
 H         0.3750145776        1.0653094839       11.8749844666
 H        -0.5793548799        0.1681275409       10.6842054526
 H        -1.2639604698        3.6177520218       12.2894668476
 H         0.3105364893        3.8688584945       11.8028116568
 H        -0.7453558866        4.6630485528       10.9622592805
 Na        1.0905909982       -0.6993769344       -1.3034356123
