155

 C        -6.7414362676        1.8383615661       -7.4940176807
 C        -5.7032459790        1.4953955751       -6.3859406366
 C        -6.1564993359        1.5496659827       -4.7643751190
 C        -4.5946098396        1.6467478878       -4.1247819163
 C        -3.7903972319        3.0357694038       -4.1607657933
 C        -7.1609206661        2.8244310584       -4.4058392567
 C        -6.5868853152        0.2491074452       -4.1709120473
 O        -4.5208511347        1.4025573714       -6.6469668313
 O        -4.1348261085        0.6568887090       -3.5573002178
 C        -2.8367137455        3.1752791581       -2.8821561764
 C        -3.5670703561        2.7610829976       -1.5286643083
 C        -2.5746139436        1.8252510884       -0.4806182120
 C        -2.8293287893        0.3488981557       -0.7438212460
 C        -4.2174502074       -0.2744461957       -0.8475122871
 O        -4.7079265734        2.9812424463       -1.3738531043
 O        -1.9016450228       -0.4461113273       -1.0380469457
 C        -1.1569455075        2.3442831585       -0.8353787948
 C        -2.8996833820        2.2499607963        0.9230418514
 C        -3.9648440444       -1.8886311459       -1.1442794121
 C        -3.1464055101       -2.5687467442        0.0391104862
 C        -2.2207668414       -3.7774501432       -0.2633901408
 C        -0.9249854488       -3.0435892190       -0.8286653072
 C        -0.7343809815       -3.1242681269       -2.4071896436
 C        -1.8597017764       -4.6089568085        1.0154613453
 C        -2.8970182325       -4.7123857717       -1.2981575308
 O        -3.2447018806       -2.1201606414        1.1122673340
 O        -0.2002703554       -2.4625109763       -0.0387442085
 C         0.5741849482       -3.8413122823       -2.7124863664
 C         0.8325516828       -4.7094068521       -4.0192293031
 C         0.6812370753       -4.0067793136       -5.6394885560
 C         0.9960471549       -2.4449351658       -5.5721927482
 C         0.0177447739       -1.3784119522       -5.8282825834
 O         0.9752471526       -5.9290412601       -3.9012515952
 O         2.1981593578       -2.2302742244       -5.2162022841
 C         1.7067809818       -4.6824069322       -6.6155011972
 C        -0.8165435539       -4.3853301238       -6.1432652594
 C         0.7302839987        0.0050836341       -5.7735891231
 C         1.2440035567        0.2691353530       -4.3192878393
 C         2.6936918514        0.6888065452       -4.0864382621
 C         3.2447386190       -0.7962518462       -3.3219845093
 C         4.7182691974       -1.1628946307       -3.1782042536
 C         3.6414239433        0.8976842788       -5.2707533745
 C         3.0063414443        1.7349742473       -3.0210460471
 O         0.4791694264        0.1981166656       -3.3575269174
 O         2.3692475888       -1.3677236471       -2.7878812290
 C         4.9882420275       -1.3715302720       -1.6963403333
 C         5.2413206330       -0.1677769355       -0.8262704017
 C         4.7991617785       -0.1428736384        0.8356734154
 C         3.3162708612       -0.4748728305        0.8082363573
 C         2.6195915876       -0.2220531265        2.1724081825
 O         5.6065569296        0.9256761315       -1.2565517197
 O         2.6258906653       -0.8509798038       -0.1302446513
 C         5.4292311353       -1.3627803782        1.5863771660
 C         5.2463899824        1.1450424574        1.3613044349
 C         1.9727823810        1.1813773152        2.4499273940
 C         0.6917763116        0.8990682845        3.3464098468
 C         0.3183486562        1.8671155823        4.5997029900
 C         1.0572407009        1.3639183701        5.9213038468
 C         1.3113131488        2.3712994273        7.0123671300
 C         0.9882832519        3.3178796693        4.3667689251
 C        -1.2079696499        2.0184709944        4.8262239243
 O        -0.1322411726        0.1562297133        2.8972981812
 O         1.5802347260        0.2805960512        5.8832809240
 C         1.2846976278        1.5711064443        8.3749322507
 C         1.2226021008        2.5825001416        9.5393435491
 C        -0.0468502816        2.4325566232       10.4585527855
 C        -1.2666262076        2.4621110803        9.5705822070
 C        -2.5425746113        1.6683264717        9.9983946669
 O         2.0998507046        3.3877724203        9.6336269195
 O        -1.1898686260        2.8141952296        8.3896205448
 C         0.0758650292        1.1323330530       11.2404221497
 C         0.0651644667        3.6880046756       11.2593950152
 H        -7.5955601608        2.1749191370       -7.0069944633
 H        -6.3104435864        2.5926215580       -8.1400315048
 H        -7.0088329095        0.7737650030       -7.8507161823
 H        -3.2645013502        2.9588694194       -5.0895307943
 H        -4.3826578617        3.8764838931       -4.4154490541
 H        -6.5432695878        3.7153627051       -4.0019797346
 H        -7.7751196779        2.5817508096       -3.6108559794
 H        -7.7807363070        3.1581744874       -5.1738278042
 H        -7.6550552362        0.1291066650       -4.3038461827
 H        -5.9713971048       -0.5449549706       -4.7053645731
 H        -6.4126337869        0.1894234160       -3.1423408624
 H        -1.9217854415        2.6406446271       -2.9649617456
 H        -2.6421187737        4.2538678725       -2.8732297226
 H        -5.0095044685       -0.0712437185       -0.2382650779
 H        -4.6300813311        0.0709350510       -1.7455014744
 H        -0.7980855610        2.1793788970        0.1624966234
 H        -1.0493326729        3.4283661139       -0.9778348097
 H        -0.5635865659        1.9061940190       -1.6648404474
 H        -2.3231188511        3.0899032140        1.2103195970
 H        -3.9662962252        2.4420444524        0.9604490511
 H        -2.6879779615        1.3440055830        1.5115524912
 H        -3.4671856807       -1.9606191916       -2.2043239713
 H        -4.9581066600       -2.3489286203       -1.0947766174
 H        -1.5327695628       -3.5973273574       -2.8687007918
 H        -0.6766275474       -2.0519803870       -2.8926059265
 H        -1.2971426981       -5.4471204098        0.7349400159
 H        -2.7476930766       -5.0378111190        1.6103835749
 H        -1.3791708162       -3.9097385581        1.7924654171
 H        -3.3269852719       -4.0929846595       -2.1148365213
 H        -2.2634377723       -5.5047408899       -1.7150621243
 H        -3.6963233462       -5.0463227855       -0.6182718572
 H         1.3617726535       -2.9910954581       -2.6299624488
 H         0.8354416523       -4.4795457820       -1.8930401858
 H        -0.5541079957       -1.5642519131       -6.7941605319
 H        -0.7462703996       -1.3418026154       -5.0917854474
 H         1.2743437814       -4.6936657338       -7.5990689048
 H         1.5800666116       -5.7457623555       -6.5350285243
 H         2.7610876482       -4.3983865595       -6.6039036843
 H        -1.0021478210       -4.6312510356       -7.1802208954
 H        -1.1230885283       -5.2547701762       -5.5818443027
 H        -1.4575537153       -3.5867827916       -5.8126000600
 H         0.0200516857        0.7957764204       -5.9586412614
 H         1.4735992962       -0.0048304248       -6.6388189759
 H         4.8014603733       -2.0130644005       -3.8043008998
 H         5.4774299556       -0.4022654545       -3.6136334041
 H         4.5742061347        0.6304730354       -5.0298867017
 H         3.5148170125        1.7099671282       -5.9313091727
 H         3.5926422885        0.0763056083       -5.9661358760
 H         3.8144105030        1.4371522118       -2.4277165166
 H         3.2212548357        2.7334380394       -3.4429002022
 H         2.0603760120        1.8346470498       -2.2948035808
 H         4.0465865984       -1.8928079221       -1.1022852793
 H         5.8540768674       -2.0260677810       -1.5644313685
 H         1.7069930218       -0.8769547004        2.3307607381
 H         3.3307541543       -0.4472576967        2.9829535361
 H         6.2227171235       -1.8496257016        1.1274900319
 H         4.6223824076       -2.1466774035        1.6358372564
 H         5.7118649265       -1.1621356261        2.7075712216
 H         5.0176322622        2.0619766589        0.7854789448
 H         4.9663135710        1.0930024978        2.3948539720
 H         6.3433115194        1.0718869199        1.3638321990
 H         1.4816205683        1.4923967083        1.6189887609
 H         2.6594392454        1.8755787203        2.6980715043
 H         2.2427059475        2.8587546672        6.9238715222
 H         0.5148090283        3.1576494816        6.9731288319
 H         2.0722447214        3.1608183362        4.1736830158
 H         0.9366371438        4.0011405279        5.1269755843
 H         0.4585419629        3.7722808160        3.5821450735
 H        -1.7254801722        2.1246361389        3.8480468222
 H        -1.6673956234        1.1056591787        5.2940479285
 H        -1.3005096798        2.9460485100        5.4210193978
 H         0.5563127150        0.6886363568        8.4322006896
 H         2.1865788703        0.8618741886        8.3558661659
 H        -2.2971539128        0.5709522551       10.2698703674
 H        -2.8104518565        2.1488234812       10.9588994567
 H        -3.3464110528        1.6679969679        9.1769207326
 H        -0.9050055902        0.7287696274       11.4225866708
 H         0.8180017174        1.2144196087       12.1072812210
 H         0.3982065288        0.3536156741       10.4754457467
 H        -0.7557958937        3.7620011554       12.0465107844
 H         0.9225780982        3.7512387666       11.9528510809
 H        -0.0012864001        4.6827688889       10.7718157440
 Na        0.3245727033       -0.5743866821       -1.2679605329
