155

 C        -6.8981358626        1.9781344042       -7.0322326559
 C        -5.6891446271        1.7273835556       -6.1751930430
 C        -6.0508158257        1.6586949246       -4.6332509634
 C        -4.4873989768        1.6265905130       -3.8931395663
 C        -3.7995681254        3.0988592193       -4.0197472458
 C        -6.8761610994        2.8522577856       -4.0090755053
 C        -6.8398975613        0.2074438426       -4.4270962664
 O        -4.6271059479        1.2318427732       -6.5698799814
 O        -3.9334049007        0.6993526297       -3.3405849894
 C        -2.8398099829        3.1861430622       -2.8902206833
 C        -3.4865374510        2.8982381870       -1.4963526963
 C        -2.6739860890        1.8268625876       -0.5999426404
 C        -2.8472264713        0.3179598261       -0.9166974040
 C        -4.1084660184       -0.3245978892       -0.6628862540
 O        -4.5148783019        3.3496263012       -1.0382991987
 O        -1.8892510301       -0.2591931403       -1.3537260902
 C        -1.1710468659        2.1869768329       -0.6448031701
 C        -3.1838663755        2.0903426396        0.8072508926
 C        -4.1656163164       -1.7696858176       -0.9941680775
 C        -3.4368470447       -2.6162295266        0.0123725092
 C        -2.4041372715       -3.9004162123       -0.3269664087
 C        -1.0240737491       -3.2579265756       -0.9316592252
 C        -0.6489874355       -3.3071294674       -2.4372145267
 C        -2.0335878082       -4.4365328746        1.0481703074
 C        -3.1226519057       -5.0320433456       -1.2753352285
 O        -3.3827635353       -2.1772182353        1.1803071501
 O        -0.3527434873       -2.5051508117       -0.2164038261
 C         0.8575422675       -3.7702852253       -2.8371618096
 C         0.8122632479       -4.6090120255       -4.0662791531
 C         0.5475463021       -3.8724940209       -5.5819024198
 C         0.9916108594       -2.4364634157       -5.6119894981
 C        -0.0130916956       -1.3445848965       -6.1241331205
 O         1.0100915838       -5.8014460561       -4.0516692857
 O         2.0849090805       -2.0681391270       -5.2592371918
 C         1.7216448844       -4.6167862383       -6.2613276213
 C        -0.7337102173       -4.3255293183       -6.1552812681
 C         0.5741238532       -0.0059549029       -5.9378036054
 C         1.1512109477        0.2156479112       -4.5100967473
 C         2.5554642270        0.4321589340       -4.0955569198
 C         2.9790352567       -0.7394609407       -3.0298535696
 C         4.5108707616       -1.3477036189       -3.0610228451
 C         3.6505008791        0.2746957718       -5.1710022875
 C         2.7055500438        1.8755089065       -3.4014369860
 O         0.3644151157        0.3965454547       -3.6049254601
 O         2.2048099934       -1.2570595849       -2.2327150594
 C         4.9096871454       -1.7574542640       -1.6090778786
 C         5.1991879906       -0.3633598198       -0.7974778161
 C         4.7232171324       -0.2157332385        0.6491232166
 C         3.1074620345       -0.3287357987        0.8676697692
 C         2.4548967780       -0.4080812135        2.2403641606
 O         5.6862655936        0.4893956511       -1.4249816992
 O         2.3767818911       -0.3583845990       -0.1003977340
 C         5.3926920427       -1.4676344538        1.1654965406
 C         5.2961458967        1.1459708193        1.2903293366
 C         2.0678933328        0.9797713567        2.7380932362
 C         0.6495934445        0.9213414359        3.3857400618
 C         0.4390870112        2.0173976971        4.4151921352
 C         1.3307630049        1.3920700391        5.6471306357
 C         1.4023629786        2.3028000723        6.8669940701
 C         0.7955030581        3.5616866302        4.0753649392
 C        -0.9980234727        1.9117929715        4.9317213374
 O        -0.2619777361        0.1437207736        3.0974443241
 O         1.7511702605        0.2494436596        5.6432724786
 C         1.5531263401        1.6428880128        8.2026700917
 C         1.5064595059        2.6211145398        9.3504149382
 C         0.2880002895        2.4443945306       10.3100117974
 C        -1.0684760650        2.3762626104        9.5349002343
 C        -2.4077344891        1.9050399479       10.2493008857
 O         2.3650783940        3.4808136280        9.4280740925
 O        -1.1781434815        2.7357735401        8.3792878443
 C         0.7240363175        1.2127674670       11.1855559109
 C         0.1930203325        3.6475816817       11.3830537752
 H        -7.5520263328        2.6897605279       -6.4566612777
 H        -6.5126831580        2.5382043610       -7.8928008143
 H        -7.3411663411        1.0180540859       -7.1973580780
 H        -3.4507096147        3.2992333124       -5.0427069688
 H        -4.6832754139        3.7532998585       -4.0600557720
 H        -6.3597008830        3.5483454526       -3.3532346315
 H        -7.8031876650        2.4061586388       -3.4522009045
 H        -7.3619990652        3.4612215345       -4.8489829080
 H        -7.4683131271        0.0073077569       -5.2606428413
 H        -6.1417919857       -0.4820422881       -4.1036265820
 H        -7.4612441946        0.3068603299       -3.4989068182
 H        -2.1750201401        2.2708712016       -3.0494369416
 H        -2.2877462972        4.1586056670       -2.8981797252
 H        -4.5382664900       -0.1082033121        0.4027034961
 H        -4.9514778993        0.2085644656       -1.2697446068
 H        -0.5858072763        1.6827573894        0.1336202037
 H        -1.1068245165        3.2605101939       -0.5828538268
 H        -0.8820703475        2.0220968969       -1.6556115925
 H        -3.2692204378        3.1866753237        0.8743319946
 H        -4.0912915528        1.4908987838        1.0098099229
 H        -2.4478624811        1.7469871819        1.4824625090
 H        -3.7140192059       -1.8145604546       -1.9219514289
 H        -5.1981429709       -2.0643684773       -1.0685073137
 H        -1.3542728494       -3.8919547533       -3.1291513844
 H        -0.8419175729       -2.3678999332       -2.8118549304
 H        -1.5162554825       -5.3982755144        1.0531514764
 H        -2.9052242814       -4.6162035671        1.5654345849
 H        -1.6018003665       -3.7088852507        1.5992818937
 H        -3.6700090616       -4.5044323902       -2.0846393209
 H        -2.2864578407       -5.4298610621       -1.8601192972
 H        -3.8091300391       -5.7155827009       -0.7897930544
 H         1.4862566575       -3.0012401340       -2.9729481945
 H         1.3472879795       -4.3485013356       -1.9846301215
 H        -0.3405311353       -1.5075903079       -7.1590631689
 H        -0.9632265865       -1.3386292299       -5.5092480319
 H         1.8947685889       -4.4610199642       -7.3311545515
 H         1.5783590935       -5.6967287368       -6.2373327762
 H         2.5794540414       -4.3589598021       -5.6611187330
 H        -0.4909027586       -4.1120299412       -7.2088428465
 H        -0.7370925070       -5.4339637088       -6.1739696006
 H        -1.7395646272       -3.9381420479       -5.8853529937
 H        -0.0926483162        0.8028505503       -6.2416145669
 H         1.3350004154       -0.0076748785       -6.6992370676
 H         4.4149988816       -2.3488471233       -3.6823047391
 H         5.2493382700       -0.7424374050       -3.4332251269
 H         4.5333053333        0.9795671689       -5.0223576019
 H         3.2048983504        0.5478547787       -6.2419643413
 H         4.2110444464       -0.5418997765       -5.5264673141
 H         3.0871544852        1.6690314282       -2.3390121993
 H         3.4704604075        2.4841205295       -3.8591868946
 H         1.8181037702        2.3971114224       -3.3573341301
 H         4.0852331226       -2.1680397483       -1.1650208637
 H         5.7786042786       -2.4365794848       -1.6937955952
 H         1.5241887887       -0.9457489478        2.0799736706
 H         3.0523125876       -0.9064700681        3.0322654319
 H         6.5265239716       -1.2617453393        1.3477728724
 H         5.0397121689       -2.4176094043        0.7928874875
 H         5.1577671327       -1.4219135338        2.1927474796
 H         5.1985903711        1.9139386489        0.5515827569
 H         4.8953181387        1.2661304275        2.2942736450
 H         6.3507796468        1.0015215356        1.4480685806
 H         2.1572927355        1.8802971867        1.9835062305
 H         2.9273107355        1.2318402297        3.5062293207
 H         2.3570384664        2.9183746422        6.7207596513
 H         0.6277749397        3.0606569365        6.8837375407
 H         1.8677315173        3.7492086726        4.0092093086
 H         0.4195899505        4.2671375973        4.8815754327
 H         0.2622087999        3.9179929094        3.1228076313
 H        -1.6613613300        1.9365093266        4.0226719806
 H        -1.0343649482        0.8761049455        5.1359984929
 H        -1.3889110605        2.6573417852        5.6664390372
 H         0.9166439353        0.8308070505        8.3313959623
 H         2.4546699267        1.1291260000        8.1886186577
 H        -2.1992226272        1.1708961474       10.9480761258
 H        -2.9227804472        2.6928887057       10.7628783443
 H        -2.9302290882        1.3633036472        9.5216994266
 H        -0.1552210507        0.8579308612       11.6892595613
 H         1.5036780360        1.5047266698       11.7779356935
 H         1.0302087243        0.3761720092       10.6494419489
 H        -0.7374137112        3.9625914569       11.6803992642
 H         0.6402937512        3.5234067705       12.3561096068
 H         0.5402309250        4.6022756880       10.9603153700
 Na        0.5331703611       -0.5350681383       -1.1651801600
