155

 C        -7.7109636892        3.6918493231       -5.9197991780
 C        -6.3943757646        3.4596639379       -5.1430144702
 C        -6.5174816713        2.6013802862       -3.7982029300
 C        -5.0610063909        2.0051022505       -3.4790098507
 C        -4.1765519802        3.2798703772       -3.0990008966
 C        -7.1838555553        3.5729725388       -2.7985123170
 C        -7.5258742388        1.3927996588       -4.0935319137
 O        -5.3378876355        3.7642086834       -5.5666723663
 O        -4.5681173389        0.9192652485       -3.7568424967
 C        -2.9525006533        3.0477506726       -2.3533093276
 C        -3.3854723604        2.7568456064       -0.8119014492
 C        -2.2276946621        2.5111988046        0.2714017795
 C        -1.8640302737        1.0349338784       -0.0384075659
 C        -2.5390720027       -0.1443729764        0.8343631816
 O        -4.5487491692        2.7875931601       -0.6040513198
 O        -1.4042890442        0.7631574062       -1.1539030195
 C        -0.8861037621        3.3243937463        0.0775101710
 C        -2.7634735261        2.7936431429        1.6278492199
 C        -3.2429326271       -1.3346933829        0.1030306509
 C        -2.6082165217       -2.5965198318        0.4949392810
 C        -2.7739293758       -4.0193433239       -0.4740466995
 C        -1.6049329969       -3.8400206884       -1.4704681271
 C        -1.1460368390       -4.8310655181       -2.6295393937
 C        -2.4428395917       -5.2817323701        0.4476684074
 C        -4.0901221621       -4.2639498073       -1.2659202418
 O        -2.1111341524       -2.5887030461        1.5510697838
 O        -0.7094126862       -3.0447663651       -1.1549237462
 C        -0.9834966265       -4.1761323194       -4.0051506223
 C        -0.4352407966       -5.2934117291       -5.0877947096
 C        -0.3467807598       -4.7216191792       -6.5034991653
 C         0.4699474209       -3.3920027442       -6.6231426809
 C        -0.2117519588       -2.2586192888       -7.3716850439
 O        -0.2117068153       -6.4918390888       -4.8031397958
 O         1.6338412109       -3.4566450441       -6.1859066918
 C         0.3697903977       -5.7429012871       -7.4667160042
 C        -1.8126619778       -4.7123404501       -7.1722491010
 C         0.3842733845       -0.9413418841       -6.9553423323
 C         0.8662922423       -0.7436685214       -5.3099706350
 C         2.2576208153       -0.3210307535       -4.8237130717
 C         2.7960855520       -1.3700215964       -3.5812006329
 C         4.4081148982       -1.3794713578       -3.4752009894
 C         3.2910189035       -0.4932433666       -5.9787056021
 C         2.1872558528        1.1207862256       -4.1539591188
 O        -0.0041686821       -0.9537026673       -4.5627703236
 O         2.0769244958       -1.7292852772       -2.6770963507
 C         4.8603512157       -1.5066243035       -1.9690343418
 C         4.0789624070       -0.5897236439       -1.0096313700
 C         3.6754316930       -1.0945770989        0.4815218802
 C         1.9322563433       -0.5523150266        0.8314476903
 C         1.9460498676       -0.1069185619        2.2813704342
 O         3.9585638118        0.5459294921       -1.2735994053
 O         0.9560565718       -0.8263019025        0.2075999954
 C         3.4607419863       -2.6869380421        0.5055469076
 C         4.7572207219       -0.4982595326        1.3842694132
 C         0.8597084076        0.9824000886        2.4046574484
 C         0.3828596063        0.9828412127        3.9491167725
 C         0.6056127571        2.2585588725        4.8740091168
 C         2.0610107473        2.0892129501        5.4363540217
 C         2.6391417057        3.0479241891        6.5574426914
 C         0.6726867109        3.5705560607        4.0914017294
 C        -0.5431785151        2.2587066217        5.9211508875
 O        -0.1402280282       -0.0084923746        4.3372862225
 O         2.8365686571        1.2488555687        5.0700804022
 C         2.0713552999        2.7450323283        7.9723643461
 C         2.7889518864        3.6112710044        8.9491091474
 C         3.1093794182        3.0960268530       10.4473226874
 C         1.6862680009        2.5295224947       11.0055894070
 C         1.5257255627        2.5901308681       12.5100701396
 O         3.1656203375        4.7131306498        8.6958794186
 O         0.8086215535        2.1414780500       10.2898823643
 C         4.0045889018        1.8860743967       10.4408213665
 C         3.6539507005        4.2019502373       11.3094895101
 H        -8.4577222590        4.0177386168       -5.1333346143
 H        -7.7344419934        4.4313340855       -6.6788409482
 H        -7.9901460687        2.7438637390       -6.2813518931
 H        -3.9923118074        3.7177713788       -4.1557279223
 H        -4.7283886937        3.9583291252       -2.3717446313
 H        -8.2197524178        3.7797633351       -3.1168048584
 H        -6.6703433062        4.5302478668       -2.7845200173
 H        -7.3433064048        3.1708896261       -1.8007974798
 H        -8.5544069914        1.6443900296       -3.8754597789
 H        -7.4027861400        1.1734523382       -5.0899036296
 H        -7.2679602284        0.5038552274       -3.5416750178
 H        -2.1759374946        2.3253486903       -2.6854289410
 H        -2.3506572610        3.9954384121       -2.3333697690
 H        -1.7148253014       -0.5645152134        1.4363443802
 H        -3.3137529675        0.2466976264        1.4997566416
 H        -0.1115619322        3.0911008504        0.8063370437
 H        -1.0441866539        4.4088300907        0.2513149193
 H        -0.4781600496        3.1171429590       -0.9389474225
 H        -3.8076308629        2.6367416451        1.7853125062
 H        -2.2866804664        2.2239261369        2.3760196155
 H        -2.6672539991        3.8667680316        1.8632779361
 H        -3.4143212439       -1.1384673719       -1.0267625997
 H        -4.3068908372       -1.3968753185        0.4619176688
 H        -0.1476284095       -5.1197347926       -2.3126599100
 H        -1.8782012290       -5.7027703807       -2.7894023803
 H        -2.4251992891       -6.2124377674       -0.1190189585
 H        -3.1588860178       -5.3569608824        1.2099697954
 H        -1.4939621984       -5.1563635947        0.8521714530
 H        -4.1033498467       -3.8759398996       -2.2581115080
 H        -4.4717147021       -5.3320064739       -1.3573815637
 H        -4.9714606121       -3.6625307384       -1.0170981901
 H        -1.9605971455       -3.8161137697       -4.4115799874
 H        -0.2749572535       -3.3325437397       -4.0058368495
 H        -0.3498344429       -2.2878858041       -8.4650981171
 H        -1.2497506238       -2.3755499266       -7.0128060583
 H         0.3068960454       -5.3359071666       -8.4904518911
 H        -0.0357593122       -6.7580580750       -7.6293695950
 H         1.4003637370       -5.7697454322       -7.2026009467
 H        -1.7952039721       -4.3147289277       -8.2004322515
 H        -2.1599230965       -5.7223189713       -7.1635768950
 H        -2.6029879029       -4.0836386602       -6.7322894377
 H        -0.2728343353       -0.0268474680       -7.0837357314
 H         1.3056964459       -0.8128628938       -7.4113248711
 H         4.9505373643       -2.1727488432       -4.2268853027
 H         4.6892912715       -0.3822213091       -3.7707319898
 H         4.2474905891       -0.1623662705       -5.8595187933
 H         3.1143714123        0.1775195031       -6.8615359541
 H         3.1703669919       -1.4568111434       -6.2855261780
 H         1.4208728687        1.5875769834       -4.7902003537
 H         1.8297637313        1.0053338689       -3.0887396908
 H         3.0325329436        1.6634095191       -4.2782689171
 H         4.9641157309       -2.4914581144       -1.5124277712
 H         5.9133901147       -1.1890287244       -1.9814264773
 H         1.6791389470       -1.0475485737        2.8534714989
 H         2.8876303440        0.2408179179        2.7431739833
 H         4.2690406405       -3.3898541658        0.8745958996
 H         2.7950876686       -2.7418940490       -0.3119631294
 H         2.9253085933       -2.9248980001        1.4265896770
 H         4.5347796382        0.5384500798        1.3444629678
 H         4.6854209030       -1.0410104465        2.3754661639
 H         5.7180365610       -0.7195536655        0.9735938355
 H         0.1008874298        0.9211704207        1.7570500301
 H         1.5015344273        1.8119290130        2.1178884822
 H         3.6646310182        2.9234816892        6.5896166697
 H         2.4133681207        4.0801347842        6.2702460038
 H        -0.3195237049        3.8678392836        3.7519745695
 H         1.5420102019        3.6222333820        3.3284907920
 H         0.8813491185        4.3643112589        4.7533236550
 H        -1.4845177274        2.5720721275        5.5441505177
 H        -0.7440704875        1.2647068787        6.3986502121
 H        -0.3899620920        3.0609729228        6.6287098332
 H         0.9816040464        2.8102151074        8.1716544264
 H         2.1698486563        1.6224915285        8.1650503282
 H         2.3444900623        2.9205510302       13.1296810493
 H         0.6820695699        3.3048090471       12.6208744297
 H         1.1310545001        1.6879227520       12.8949090110
 H         4.7539781330        2.0796257231        9.6945847350
 H         3.4561074301        0.9349698520       10.2903041205
 H         4.4387331039        1.7719187556       11.4308445745
 H         4.2749977119        3.9942689593       12.1559896433
 H         4.3079035955        4.8300858693       10.7833158577
 H         3.0029047627        4.8779858904       11.8054332604
 Na       -0.0369086370       -1.0273954698       -2.0948922973
