155

 C        -8.2846100115        3.7153414420       -6.1576658525
 C        -7.0434292544        4.0552482843       -5.1204829970
 C        -7.0459978324        3.2297428684       -3.7799814388
 C        -5.5303358100        3.2719394332       -3.3886595267
 C        -4.8838704844        4.2269944105       -2.4274561908
 C        -7.9800938746        4.2082956013       -2.8624135899
 C        -7.6041720793        1.6879747915       -3.9588158881
 O        -6.1144589372        4.7121331268       -5.4055389742
 O        -4.8394531555        2.5757035270       -4.1423974745
 C        -3.6431336646        3.6749939849       -1.9645631205
 C        -3.6099410250        2.7919410061       -0.6411503377
 C        -2.0909872645        2.4957134289       -0.3274874624
 C        -1.8781103550        0.9345337655       -0.7432813019
 C        -3.0356122734        0.0070396323       -0.2159173495
 O        -4.5706886051        2.4429279386       -0.0515949076
 O        -0.9254351067        0.5358453774       -1.2908953509
 C        -0.9864069463        3.3618039867       -0.9914550010
 C        -1.9395189132        2.7053536538        1.1228581917
 C        -3.1325846490       -1.3825491260       -0.9342005990
 C        -2.4705340387       -2.6263202825       -0.1417263243
 C        -2.7992350505       -4.0321088696       -0.7866700187
 C        -1.4903841584       -4.2181690780       -1.7992487254
 C        -1.4236387099       -5.4903693844       -2.8637924137
 C        -2.6913990237       -5.0323191183        0.3799231799
 C        -4.1912558678       -4.2088796204       -1.4937362349
 O        -1.5774408383       -2.5542872417        0.6702887796
 O        -0.5458911580       -3.4027299147       -1.8300684812
 C        -1.1787774179       -4.8939316784       -4.2253233004
 C        -0.8403730536       -5.8756698396       -5.4649235730
 C        -1.0262143494       -5.1853759090       -6.8646073786
 C        -0.1078055736       -3.8082025556       -6.7389062704
 C        -1.0648321937       -2.4983000509       -6.3160161365
 O        -0.1453405275       -6.8483858134       -5.3929686308
 O         1.0904612997       -3.6335943098       -6.9238401878
 C        -0.4061973713       -6.1053486517       -7.9472049684
 C        -2.5446176764       -4.8799932447       -6.9080758392
 C        -0.2474053248       -1.1526827921       -6.3124201915
 C         0.4492689142       -1.1073764695       -4.7962887891
 C         1.9827060484       -0.7239987285       -4.6867601589
 C         2.6546999749       -1.6919209548       -3.7264732267
 C         4.1443436513       -1.2405274517       -3.3286400017
 C         2.8439382792       -0.9438756774       -6.0741354388
 C         2.1109897596        0.8421940339       -4.3066360401
 O        -0.1818166361       -1.2301363772       -3.7766890409
 O         2.1933024319       -2.6339894132       -3.2000589185
 C         4.4718884081       -1.4748040926       -1.7836255095
 C         3.2275335390       -0.8678079857       -0.9575504265
 C         2.9892422237       -1.5554718367        0.5252487257
 C         1.7776098964       -0.8760295866        1.3498537588
 C         2.1081627892       -0.2938969813        2.7679282617
 O         2.5465365814        0.0136429497       -1.3443811905
 O         0.7890555451       -0.5261346552        0.7334312342
 C         2.4012167577       -2.9516537011        0.0305422317
 C         4.3041941244       -1.7005998824        1.2292833485
 C         0.8791744403        0.4644074219        3.2022836268
 C         0.6212593919        0.9489578789        4.7479727936
 C         0.8479855637        2.4527911091        5.1875792805
 C         2.3202515603        2.6026522263        5.6970158936
 C         2.7294080430        3.6532420404        6.7025263434
 C         0.8272784203        3.5246914877        4.0232682994
 C        -0.2702885140        2.7329405480        6.1687784090
 O         0.2736206663        0.1875562179        5.6053822406
 O         3.1464872382        1.8080371838        5.2823500358
 C         3.3834749873        2.9457541256        7.9511135436
 C         3.8620811924        3.8893255599        9.0991208157
 C         4.6481230673        3.1869051617       10.4126524796
 C         3.5233750701        2.6504818599       11.4552709394
 C         3.7428402527        3.0146865712       13.0011534967
 O         3.6133127615        5.0432337920        9.1029631096
 O         2.5940400329        2.0465378416       11.0427274243
 C         5.6266202014        2.1282181191        9.9375076848
 C         5.4376175853        4.3951032415       10.9764573894
 H        -8.9814655644        3.1111162600       -5.5552655720
 H        -8.8010321384        4.6402554980       -6.3851121512
 H        -7.9539365670        3.2501436033       -7.0176616769
 H        -4.6451412660        5.1829142067       -2.9858807818
 H        -5.5136999745        4.6839475683       -1.6363785086
 H        -9.0459701718        4.2369923730       -3.1724182483
 H        -7.6066372788        5.1810424273       -2.9929380990
 H        -8.0490203295        3.9823747399       -1.8216128772
 H        -8.5085417672        1.6088644733       -4.5367089189
 H        -6.9202191947        1.0544159725       -4.4783982270
 H        -7.7759631985        1.2539758068       -3.0196065105
 H        -3.1431092674        3.0953377405       -2.8098974442
 H        -2.9202095172        4.3720214853       -1.5753248876
 H        -2.7453459908       -0.1695031660        0.7986231187
 H        -3.9672011836        0.5658042410       -0.1222724584
 H         0.0180926438        2.9830168181       -0.7181148733
 H        -1.0845137982        4.3933732724       -0.5917613421
 H        -1.0259720478        3.4629150241       -2.0716271929
 H        -2.4678436148        2.0586701926        1.7371510941
 H        -0.9721210391        2.4175014889        1.4534491982
 H        -2.0066631945        3.7481558871        1.4364287523
 H        -2.6678444355       -1.3379756356       -1.9903908815
 H        -4.2503476218       -1.5400007424       -0.9715486942
 H        -0.6267081123       -6.2112580362       -2.6987853876
 H        -2.3019308597       -6.1875276633       -2.8162843195
 H        -2.7621565449       -6.0539601785        0.0286745236
 H        -3.4798938288       -4.8532901543        1.0562032357
 H        -1.8517061920       -4.6367592412        0.9125064594
 H        -4.3088960752       -4.0793845771       -2.5841820151
 H        -4.3911591163       -5.3179501255       -1.4729285408
 H        -5.1267345455       -3.6676511878       -1.0966996075
 H        -2.0225611334       -4.1698638831       -4.5986939127
 H        -0.4137360862       -4.1741676685       -4.1639617850
 H        -1.7862634740       -2.3685317842       -7.2346792358
 H        -1.5745209177       -2.6566508102       -5.3680075482
 H        -0.9499616413       -6.1034643941       -8.8846270631
 H        -0.2718186497       -7.1142092419       -7.4997399849
 H         0.6327862432       -5.8706268545       -8.2186525748
 H        -2.9825611385       -4.5369751001       -7.8524212373
 H        -3.1538011615       -5.7420746289       -6.6178611525
 H        -2.7496381651       -4.1856495252       -6.1032071725
 H        -0.9233480529       -0.3008337899       -6.5178164818
 H         0.5471415146       -1.1698569990       -7.0065255343
 H         4.8026490531       -1.8238640767       -3.9302946836
 H         4.3226064790       -0.2931460548       -3.6752886804
 H         3.8561175673       -0.6254896322       -5.8702262436
 H         2.3841844495       -0.2109161235       -6.8556147502
 H         2.8307847222       -2.0102278070       -6.3758618693
 H         1.4336700483        1.0611844111       -3.4864730293
 H         3.1387882824        1.1821892345       -3.9900814974
 H         1.9538392118        1.3352034754       -5.1641811647
 H         4.7915737397       -2.5418522343       -1.4998423569
 H         5.2698793549       -0.7973359040       -1.6014825086
 H         2.3417886085       -1.0764217794        3.4233253321
 H         2.9433656120        0.3588360159        2.4676536922
 H         2.8956695673       -3.4703585263       -0.9505542380
 H         1.3517003369       -2.8276311796       -0.2437906375
 H         2.3355571972       -3.6407208347        0.9078312895
 H         4.8282902280       -0.7327064305        1.4568637042
 H         4.0529887136       -2.2498166224        2.1197312605
 H         4.7604242063       -2.3629636820        0.5517753495
 H         0.1003070509       -0.1729366806        2.8974079909
 H         0.8284462081        1.4328869942        2.5219572352
 H         3.4011817906        4.3077087980        6.1892138121
 H         1.8953864936        4.2366418606        7.0259349461
 H        -0.1374090666        3.3937407766        3.4584911872
 H         1.7259435339        3.4861211807        3.3789070605
 H         0.8637591882        4.3665937823        4.6622476079
 H        -0.8948064351        1.8684671712        6.4434384481
 H         0.1443561290        3.1178957700        7.1047075525
 H        -0.8529908852        3.5912562128        5.9090565460
 H         2.5235801532        2.3020115465        8.3719399558
 H         4.2645378971        2.4467385670        7.5751431240
 H         4.7019034235        2.5827348583       13.3440394382
 H         3.9909046634        4.0545130786       13.2486598485
 H         3.0225407926        2.6458769192       13.7266523787
 H         5.3744044646        1.6003092857        9.0161153406
 H         5.7167270578        1.4377326095       10.8671062999
 H         6.5063533030        2.7255851178        9.6671100455
 H         5.1168452662        5.0202353404       11.8197265252
 H         6.4077586733        4.1811255657       11.2580121676
 H         5.5705088325        5.1571965910       10.2607642628
 Na        0.3020446912       -1.2383565652       -1.5247267278
