155

 C        -7.9385737846        4.2121402324       -6.2485781162
 C        -7.4066074955        4.6497434460       -4.8843598767
 C        -7.4680139347        3.4439702713       -3.8687601246
 C        -6.1641724836        3.3585063472       -3.1728218844
 C        -5.6794386042        4.5772216206       -2.4555688268
 C        -8.4504299352        4.1223046527       -2.6977635543
 C        -8.0913353326        2.0975263914       -4.5030437487
 O        -6.6973944893        5.6804869471       -4.7035510303
 O        -5.4547431739        2.3680403012       -3.3179494603
 C        -4.1234218519        4.3967934211       -2.1915793606
 C        -4.1393195063        3.2761125460       -1.2104835759
 C        -2.6887683869        2.4549516745       -0.8111074845
 C        -2.5866171865        0.9852392569       -1.3812231638
 C        -3.8241109855        0.1138616843       -1.6194596050
 O        -5.1212737084        2.9885116554       -0.5139958174
 O        -1.4413334831        0.4839062561       -1.6297542266
 C        -1.3976932867        3.3771863242       -1.1767774415
 C        -2.8385021535        2.3004372479        0.6394166827
 C        -3.3048289030       -1.3027642644       -1.9498810368
 C        -2.8243452377       -2.2243091143       -0.8234839555
 C        -2.6383248330       -3.7902509367       -1.0311985207
 C        -1.2868052046       -4.1456048733       -1.8570293067
 C        -1.4696116857       -5.1856491189       -3.0652536124
 C        -2.6426546481       -4.4042242367        0.4091722880
 C        -3.8982370730       -4.3869700747       -1.6813365801
 O        -2.6349729484       -1.7468769276        0.2752841272
 O        -0.1874034758       -3.7087248982       -1.4939259105
 C        -0.4759583042       -5.1978894826       -4.2302562627
 C        -1.2523391022       -5.8355636844       -5.4061962258
 C        -1.2116599869       -5.1959874791       -6.8836058448
 C        -0.2946388095       -3.9582146775       -6.7942691656
 C        -1.1661528091       -2.6093743644       -6.3870330899
 O        -2.0530844359       -6.7376795244       -5.1225072520
 O         0.8973191689       -3.9660306760       -6.8385350244
 C        -0.5805775073       -6.2468435030       -7.7940280023
 C        -2.7135015427       -4.9007554719       -7.3066738197
 C        -0.4621377483       -1.2271674168       -6.0568318818
 C         0.2729788846       -1.2969991684       -4.7045800225
 C         1.8016662635       -0.9448228705       -4.7813334413
 C         2.3698014897       -1.6964530280       -3.4880819575
 C         3.7426122489       -1.1610574577       -2.8967014585
 C         2.6824039315       -1.4419918241       -6.0803539858
 C         1.9208094609        0.6430636659       -4.6171364821
 O        -0.3368910707       -1.5455915378       -3.6585123465
 O         1.8905996450       -2.7485022741       -3.2282101593
 C         3.9977851128       -2.0334405193       -1.5406844245
 C         3.1300286773       -1.2967253397       -0.5403048895
 C         2.9432047052       -1.9796169245        0.8678024403
 C         1.7849758838       -1.1555913376        1.5667178383
 C         2.0694777814       -0.1735199773        2.5831955595
 O         2.5389519143       -0.3330966340       -0.9708501892
 O         0.5737477715       -1.3136345590        1.1590753052
 C         2.5257370349       -3.5422860463        0.7997591884
 C         4.3088042524       -1.8466888531        1.6296186996
 C         0.8373268800        0.2649835349        3.4021125588
 C         1.4427870663        0.9053228062        4.8015582810
 C         1.3330850570        2.3872720162        5.4841413924
 C         2.7920503848        2.4111729117        6.0874538122
 C         2.9075536783        2.7271644806        7.5916327122
 C         1.2662344593        3.5091570172        4.3309500793
 C         0.3386580113        2.4402393804        6.5830233156
 O         1.9464092320        0.0682053715        5.4876613374
 O         3.7780536072        2.4723417569        5.3809045695
 C         4.4036399400        2.7593661284        8.1084237313
 C         4.8259914532        3.9467693086        9.0127023914
 C         5.7819116189        3.6081411561       10.1202182715
 C         4.9868946247        2.8940301875       11.3141857861
 C         5.3807717495        3.0873317238       12.7171704991
 O         4.5303395224        5.1251908362        8.7939068847
 O         4.1626709726        1.9951191946       11.0272563395
 C         6.8660892691        2.5417439268        9.8357741246
 C         6.5454435302        4.8233920816       10.6543033314
 H        -8.9050402195        3.8746976141       -6.0537640519
 H        -8.0734028591        5.0836219631       -6.9249930575
 H        -7.2267851066        3.3453830433       -6.6080672184
 H        -5.8097428489        5.4715068195       -3.1370563210
 H        -6.0789933033        4.9997350313       -1.5048027553
 H        -9.4576724005        4.3093307433       -3.1469063403
 H        -8.0482631078        5.1414413695       -2.2804679340
 H        -8.5146787361        3.4099216971       -1.7907583161
 H        -8.9577074420        2.2495021817       -5.2070985430
 H        -7.3926323956        1.4248166645       -4.9993552945
 H        -8.6063564862        1.5325857182       -3.6333762829
 H        -3.6166439222        4.1145137789       -3.1636910631
 H        -3.8185354848        5.2429470927       -1.6453714253
 H        -4.4014354122        0.0806142859       -0.6616650852
 H        -4.5669036131        0.5125528340       -2.4023428856
 H        -0.4787624522        2.8880928470       -1.4160800674
 H        -1.1760689925        3.9819584841       -0.3050486527
 H        -1.6657275520        4.1313584581       -1.9341727732
 H        -3.7324123170        1.6819154493        0.9494019197
 H        -2.0048057024        1.8382402687        1.1027784050
 H        -3.1177160191        3.2002815798        1.2615191037
 H        -2.5845517463       -1.3919461168       -2.7983395857
 H        -4.1416357596       -1.8270128584       -2.3046635433
 H        -1.2894705395       -6.1414533047       -2.5945841053
 H        -2.5184824085       -5.0421597392       -3.4725518876
 H        -2.6694924595       -5.4264876545        0.2601554318
 H        -3.5556262738       -4.0158991561        0.8475531410
 H        -1.7153777834       -4.0339781038        0.9322089466
 H        -4.0645344944       -3.9787509596       -2.6201792791
 H        -3.7774230479       -5.4642939854       -1.7535314258
 H        -4.7126104863       -4.3118723926       -1.0241171267
 H        -0.1273806864       -4.1387921139       -4.4839076023
 H         0.3780308624       -5.8648533801       -4.0027104099
 H        -1.7868248180       -2.5289893654       -7.2872022046
 H        -1.9114354494       -2.8636692258       -5.7374290951
 H        -0.9912175038       -6.2328844963       -8.7988996846
 H        -0.8774753634       -7.2745927842       -7.5791095880
 H         0.4790309414       -6.0999763853       -7.8345698311
 H        -2.7648310149       -4.0472044716       -8.0057987143
 H        -3.1185032624       -5.7904135538       -7.7527232665
 H        -3.3280298528       -4.5138609592       -6.5139205022
 H        -1.0751398042       -0.3595820898       -6.2027232643
 H         0.3906622977       -1.2390234422       -6.7713053942
 H         4.3869218575       -1.5238416600       -3.7120434263
 H         3.8186818931       -0.1220584225       -2.8088859974
 H         3.7449991155       -1.2507879165       -5.7173263485
 H         2.3951719781       -0.8659775625       -6.9064141513
 H         2.5246033479       -2.5141590910       -6.2335341739
 H         1.0451344796        0.9137758904       -3.9776026095
 H         2.8417410931        0.9844217580       -4.2010251531
 H         1.5627508053        1.1500878565       -5.6401102346
 H         3.5787518186       -2.9202302268       -1.6786688427
 H         5.0836481985       -2.2228393360       -1.3199197588
 H         2.7201409823       -0.8414985883        3.2405659160
 H         2.8128759208        0.6382740248        2.2678876138
 H         2.8373211616       -3.9223517365        1.7007311000
 H         3.0870058382       -4.2129339750        0.1115152238
 H         1.4572437906       -3.6442142895        0.7476367822
 H         4.5136314961       -0.8325294452        1.3696606415
 H         4.3208043530       -2.2420457943        2.7183816676
 H         4.9255026786       -2.4500134087        0.9375149339
 H         0.1666737224       -0.5996432229        3.6343769821
 H         0.2538693911        1.0755259723        3.0595741753
 H         2.4110039190        3.6802279065        7.7041785856
 H         2.4171665275        1.9359626764        8.1794794761
 H         1.0205209846        3.0838514821        3.3623656412
 H         2.2404963392        4.0562555176        4.4636156964
 H         0.4561309742        4.1468929385        4.4317926037
 H         0.2713624622        1.5628909637        7.1770885573
 H         0.5905296053        3.2891622812        7.2829825071
 H        -0.6336749955        2.5100511062        6.1754335527
 H         4.6091078789        1.7911111067        8.6829519900
 H         5.0993380683        2.7752394388        7.2606523004
 H         6.3923407719        2.9947871278       13.0559200571
 H         4.9178173729        3.9393920785       13.2753796457
 H         4.9020055136        2.3121033029       13.2805991117
 H         6.5345787366        1.6627379738        9.2801460852
 H         7.2563659688        2.1299906084       10.7540100809
 H         7.7433618765        2.9917774986        9.3704811082
 H         6.9553871100        4.5720316158       11.6116863534
 H         7.4268641882        5.1455872113       10.0189050506
 H         5.9800342150        5.8070572255       10.7764256761
 Na       -0.1406654342       -1.4798503364       -1.1397411679
