155

 C        -7.2717051924        5.5559336351       -6.0987515315
 C        -8.1601484278        5.5167991692       -4.8589410747
 C        -8.7803194019        4.0267740787       -4.4029787414
 C        -7.4596879147        3.3505828134       -3.7295143817
 C        -7.1289293992        3.6057334224       -2.2630320986
 C        -9.8942222745        4.0731555162       -3.2621342984
 C        -9.2944635545        3.1261836677       -5.5501009805
 O        -8.1493983370        6.2849053655       -3.9558512110
 O        -6.7304745189        2.6939930464       -4.4567998452
 C        -5.6185447420        4.0302022542       -2.2427762696
 C        -4.7338995047        3.0059527324       -1.2755600423
 C        -3.1822044512        2.7906218802       -1.0055055766
 C        -2.6786199718        1.3265145561       -1.1150330833
 C        -3.5504896290        0.1822038691       -0.7380233646
 O        -5.4810195012        2.3327104177       -0.5149139978
 O        -1.5644446381        1.1186849165       -1.5855969313
 C        -2.2775235515        3.7280399689       -1.8747056566
 C        -3.1030196099        3.2247044914        0.4332294438
 C        -3.1641110117       -1.0514271618       -1.5391296502
 C        -2.9856489074       -2.3596044553       -0.7200002931
 C        -4.0156843161       -3.5334288317       -0.5985792771
 C        -3.3326277176       -4.8379440271       -1.4587078199
 C        -3.8823629345       -5.1762081507       -2.9294265601
 C        -3.8809041318       -4.0070637046        0.8839811247
 C        -5.4468634451       -3.1297198797       -0.9451359702
 O        -1.8808556357       -2.5278511111       -0.2130677921
 O        -2.9798072216       -5.6891447761       -0.7259642878
 C        -2.8250887278       -5.7820579153       -3.8175712507
 C        -2.4270989722       -5.0470889597       -5.0835443235
 C        -1.0666547668       -5.3491542923       -5.8487286893
 C        -0.1960490546       -4.0309909711       -5.9269839626
 C        -0.5025093198       -2.9593533975       -6.9913821135
 O        -3.1253110498       -4.0420877364       -5.4924300228
 O         0.8299203079       -3.9543993882       -5.2836336667
 C        -0.3425758481       -6.4537443773       -5.1229371802
 C        -1.5990669487       -5.7238741063       -7.2493219837
 C         0.2116848249       -1.5963687561       -6.8224220494
 C         0.1720984322       -1.3445395757       -5.3103313758
 C         1.5178748035       -0.8783019662       -4.5511393183
 C         1.6981891448       -1.8595216984       -3.3565874667
 C         3.0251893849       -2.4620711714       -3.2634313409
 C         2.8128531137       -0.8968915733       -5.6092816856
 C         1.2280622850        0.5742552342       -4.0404412442
 O        -0.8197064890       -1.3954625198       -4.6335145809
 O         0.9588664302       -1.9019939081       -2.3747720776
 C         3.2501243648       -3.0423920635       -1.8281197169
 C         2.7793678058       -2.0451454072       -0.8042078346
 C         2.1124146842       -2.3589397576        0.6372946666
 C         1.9472586990       -0.9363264535        1.2319766169
 C         2.9557196293       -0.4097485865        2.4103248802
 O         3.1223357816       -0.8033891145       -0.9727240213
 O         0.9975771014       -0.2480886391        0.9757684208
 C         1.0161822763       -3.4575591164        0.3784913351
 C         3.1093087986       -3.3117505846        1.3570550195
 C         2.1986056772        0.4927538073        3.4753087387
 C         2.7848985996        0.4923899002        4.8710640012
 C         2.5852913315        1.6397581122        5.9241118937
 C         4.0851618730        2.1329848398        6.1306881567
 C         4.6570238817        2.2963676478        7.6885063933
 C         1.9590859718        2.8932709248        5.4579408922
 C         1.5778873455        0.9859365904        6.9356731603
 O         3.4341710302       -0.4699149784        5.2241319608
 O         4.5756150173        2.4723356706        5.0587953069
 C         6.0848828327        2.7997307891        7.6904462742
 C         6.4076830918        3.5998723103        8.9587308292
 C         7.9165400203        3.9826693131        9.2486684811
 C         8.4729703210        2.9613676248       10.3167076064
 C         8.4005884583        3.2529712232       11.8653175608
 O         5.5741652919        4.0130690837        9.7294066943
 O         8.8879332772        1.8919263051       10.0495946147
 C         8.8425720062        3.9228880774        7.9928873079
 C         7.9174559482        5.4265594147        9.8414645825
 H        -6.2258279685        5.7436776777       -5.6430150596
 H        -7.2492461288        4.5596156600       -6.3290451815
 H        -7.5634105849        6.2438760744       -6.8966366934
 H        -7.7602662939        4.2563681376       -1.7637063836
 H        -7.2495404597        2.6211039347       -1.8462309397
 H       -10.3392001401        5.1246031985       -3.1794071420
 H        -9.5314178252        3.8358929402       -2.3164139523
 H       -10.6562489460        3.3202606197       -3.3789581257
 H       -10.3211122908        3.1627863665       -5.6571212013
 H        -8.7481421873        3.2966945618       -6.4314093707
 H        -9.1564213123        2.1479351427       -5.1008907503
 H        -5.0963541464        4.2860620720       -3.1090482665
 H        -5.5775553855        4.8968371023       -1.5475203648
 H        -3.3770814545        0.0560794774        0.3167510023
 H        -4.6537735875        0.3034061587       -0.8573314716
 H        -1.4013849519        3.9024606945       -1.2726250150
 H        -2.8899019818        4.6233143729       -1.9495555774
 H        -1.9065204670        3.4136217084       -2.8408976916
 H        -3.9385281949        2.7820032325        0.9644113930
 H        -2.2793692347        2.7039589886        0.8092880026
 H        -3.1484322960        4.2393422025        0.8185722937
 H        -2.2049493723       -0.8772275552       -1.9371872020
 H        -3.9407460538       -1.1062037212       -2.2055074130
 H        -4.7735039663       -5.7997445120       -2.7033183306
 H        -4.3566655742       -4.2654866918       -3.3403109820
 H        -4.4777431184       -5.0296995354        0.8339165175
 H        -4.1892636956       -3.2529608044        1.6135817089
 H        -2.8442146639       -4.3094752011        1.0658618762
 H        -5.3800761141       -2.6041587656       -1.9638107134
 H        -5.8209081450       -4.1739913190       -1.0781222190
 H        -6.0201246334       -2.6313594658       -0.1163443645
 H        -1.9003291448       -5.8582795997       -3.3604675479
 H        -3.0925533696       -6.9376822203       -4.0659691561
 H        -0.3539123344       -3.4838940039       -7.9660186596
 H        -1.4910876873       -2.7356180659       -6.8554138512
 H         0.6611879736       -6.6528761376       -5.5336148051
 H        -0.9009660323       -7.3992249377       -5.2938306482
 H        -0.0967422988       -6.3174341558       -4.0740560937
 H        -0.8057197551       -5.7335847440       -7.9989915520
 H        -2.1095861676       -6.6321017315       -7.1322575526
 H        -2.2057938648       -4.8865507395       -7.5276028576
 H        -0.4300332762       -0.8077990732       -7.3046087548
 H         1.2184173967       -1.6616139290       -7.3207121260
 H         3.0128656424       -3.3542821773       -3.8877618466
 H         3.8715410378       -1.9242865049       -3.4808831118
 H         3.6611453503       -0.4176497147       -5.0274064122
 H         2.4154512933       -0.3126012652       -6.4263579990
 H         3.0560839348       -1.9262279410       -5.7555389008
 H         0.5856542622        0.6514246220       -3.1908351170
 H         2.1672051546        1.0878609686       -3.6287614618
 H         0.8131809587        1.2204932666       -4.7896985171
 H         2.8036489189       -4.1052007286       -1.8472334077
 H         4.3351509525       -3.0788792983       -1.7098997105
 H         3.2909880457       -1.2847421232        2.9040698874
 H         3.6395932127        0.1771938825        1.8535938927
 H         0.7969391136       -4.1286201451        1.2173621033
 H         1.4743726186       -4.0483489172       -0.4497334602
 H        -0.0231259365       -3.3321588067        0.0833914792
 H         4.1083157622       -2.9500154957        1.2642989277
 H         2.6103396734       -3.4393224634        2.3403752507
 H         3.1800512554       -4.2099092220        0.7537356558
 H         1.1482215497        0.0469695373        3.6351163656
 H         1.9752198631        1.4969229633        3.1009143176
 H         3.9921406362        2.9941323586        8.3140131485
 H         4.5967860973        1.3074874530        8.1361655287
 H         1.0042629698        2.6764453131        4.9751718990
 H         2.5120031951        3.7064040901        4.9846324467
 H         1.7042247723        3.5103209775        6.3376427871
 H         1.7509665444       -0.0034242855        7.3192446679
 H         1.2560007444        1.7415784005        7.7473960649
 H         0.7571145914        1.0465067278        6.2376812611
 H         6.7751408900        1.9243137071        7.6738498304
 H         6.1532212096        3.4433792257        6.8687499812
 H         9.2959584630        3.7544960095       12.2499388274
 H         7.5155616469        3.9030258694       12.1534728139
 H         8.3553543871        2.2723537385       12.3368224074
 H         9.6363873541        4.7277186045        7.8639846564
 H         8.3792835877        3.9196392801        7.0116163324
 H         9.3592603805        2.9099926175        8.0943192899
 H         8.9494436931        5.6527452142        9.8298772930
 H         7.2373217910        6.0874754024        9.1945376556
 H         7.6019804663        5.2882440951       10.9282348502
 Na       -0.2392557913       -0.7583618741       -0.7495218745
