155

 C        -7.6368986580        6.2131858398       -5.8532266991
 C        -8.3198144961        5.6618530681       -4.6206785617
 C        -8.7917505967        4.0440417503       -4.4465739490
 C        -7.5317264796        3.3120553161       -3.8005562240
 C        -7.0323802762        3.7940783856       -2.4319625913
 C        -9.9112994391        4.0461927880       -3.4037848730
 C        -9.2658023157        3.3488622572       -5.7904477182
 O        -8.5914622591        6.4395600602       -3.7507904437
 O        -7.0311923997        2.4205690223       -4.4117119900
 C        -5.5358234538        3.5880255958       -2.4767143036
 C        -4.9531011971        2.5788616931       -1.5038674201
 C        -3.3729333410        2.7969781546       -1.0881017427
 C        -2.6357566113        1.4927114161       -0.6651829575
 C        -3.3884683000        0.2367045791       -0.0408843692
 O        -5.6466120354        1.6838433324       -1.0880788325
 O        -1.5196386059        1.3243163069       -1.1276793270
 C        -2.4661672112        3.5724302235       -2.0890539106
 C        -3.6437121511        3.5818476135        0.3743818533
 C        -3.8638312264       -0.8045503991       -1.0850542260
 C        -3.4205125699       -2.2471378084       -0.8275829362
 C        -4.4046732573       -3.3656269323       -0.4766553945
 C        -3.9924960413       -4.6880400314       -1.3545634256
 C        -3.9058789732       -4.4572237459       -2.9049119042
 C        -4.2245574824       -3.9157226490        1.0159300144
 C        -5.9739627305       -3.2860434183       -0.7979455923
 O        -2.2074490910       -2.4346505167       -0.7804993892
 O        -3.6692015364       -5.6743658635       -0.7365456959
 C        -2.9414702421       -5.4026011002       -3.6661033696
 C        -2.3165886006       -4.8511651394       -4.8614386471
 C        -1.0898421954       -5.4290648825       -5.5809773907
 C        -0.2232970713       -4.1952941069       -5.8203863949
 C        -0.4789172850       -3.0861261747       -6.8258643580
 O        -2.8323725057       -3.7964760736       -5.3558228956
 O         0.6913308861       -4.1704741998       -4.9944946564
 C        -0.4432231872       -6.3961957717       -4.5901920629
 C        -1.7018728204       -6.2140459412       -6.8780223251
 C         0.5358605392       -1.9024434760       -6.6962446296
 C         0.2283677282       -1.1005093226       -5.3644534945
 C         1.4897727567       -0.5440065484       -4.5620164047
 C         1.6117622268       -1.5697667949       -3.3051207906
 C         2.6190215995       -2.7628435298       -3.2270202278
 C         2.8114988220       -0.5330252812       -5.2882154767
 C         1.1403051614        0.7603824259       -3.9430512119
 O        -0.8437680958       -0.7868701944       -4.9077694921
 O         0.6784607802       -1.4992255911       -2.5401946681
 C         2.4164424458       -3.3426327893       -1.7889621036
 C         2.9741104878       -2.3559478901       -0.7974827903
 C         2.5137890132       -2.5027343679        0.7425607153
 C         2.0093116617       -1.0224029895        1.3932304527
 C         2.9125377974       -0.7123309960        2.6082055325
 O         3.5420738909       -1.2939396606       -1.2178264714
 O         1.1719402536       -0.3440220170        0.8660704142
 C         1.2814626339       -3.5636131653        0.9615484235
 C         3.6833048837       -3.3192730400        1.4148106445
 C         2.7063529903        0.5319708590        3.3172845643
 C         3.0279115890        0.2184527412        4.8146661138
 C         2.9593276191        1.3901953936        5.9121429514
 C         4.3842396510        2.0566899430        6.0764691690
 C         4.8295552445        2.3053855251        7.5689366699
 C         2.0417266377        2.6190066575        5.4789536119
 C         2.2247830353        0.9116204599        7.2643083578
 O         3.6646011919       -0.7913737414        4.9923375250
 O         5.0438347968        2.3721507085        5.1015587370
 C         6.2880742221        2.7990977632        7.6767158384
 C         6.7186792387        3.5258424572        8.8462374864
 C         8.1038311564        4.0236841190        8.8843760419
 C         9.0173894798        2.9971651015        9.8530611655
 C         8.4980857476        2.8045202756       11.3123157946
 O         6.0928982648        3.5263341577        9.9175744834
 O         9.9812203355        2.5084848251        9.2952536120
 C         8.7268777397        4.0018597943        7.5289048023
 C         8.2760904733        5.3861478647        9.5633151611
 H        -6.6284608183        6.4524133090       -5.4234469573
 H        -7.6575267935        5.4518290061       -6.6056378896
 H        -8.1030842952        7.0640770716       -6.2649010006
 H        -7.4062357061        4.7447568310       -2.2543330880
 H        -7.5394475514        3.1194799719       -1.8008473622
 H        -9.8428829587        3.2013756898       -2.7070630892
 H       -10.8440315821        4.0499041300       -3.8059509200
 H        -9.8086813923        4.8983864588       -2.8044089003
 H        -9.4159316274        4.1784429567       -6.4812094293
 H        -8.2701377326        2.8058339301       -6.0608936921
 H       -10.1612437718        2.7102195375       -5.6777868682
 H        -5.1772351940        3.1324463483       -3.4176219261
 H        -4.9411701309        4.5442917723       -2.2765184087
 H        -2.7335297189       -0.3695640007        0.5412318669
 H        -4.2249763506        0.4822339108        0.6569561648
 H        -1.4229472446        3.6320173419       -1.8583011204
 H        -2.8229737020        4.5745053747       -1.9019369644
 H        -2.5720009153        3.2486456293       -3.1495327518
 H        -3.7896280415        2.8357767181        1.1967669505
 H        -2.7579328199        4.1681115794        0.6565675999
 H        -4.5732494293        4.1868057735        0.4155325495
 H        -3.3589049757       -0.4790346885       -1.9837243560
 H        -4.8946149163       -0.7814561793       -1.1238225951
 H        -4.8918259200       -4.6854291000       -3.3375236305
 H        -3.6299349238       -3.3863699713       -2.9317294431
 H        -4.9053015893       -4.7427799887        1.3655191277
 H        -4.4858997540       -2.9825579013        1.6316667456
 H        -3.1242725976       -4.2421032644        1.1151274063
 H        -6.1747639440       -2.7372414107       -1.8145404921
 H        -6.4771612981       -4.2799321634       -0.9000570507
 H        -6.3650906466       -2.5908913887        0.0006995388
 H        -2.1873050346       -5.7653744852       -3.0717208845
 H        -3.5464508194       -6.2962082098       -4.1956793422
 H        -0.5497938951       -3.4924339206       -7.8071927689
 H        -1.4555023017       -2.7313014846       -6.6220613166
 H         0.4702919015       -6.8249841276       -5.0156505982
 H        -1.1872384138       -7.1611658077       -4.3706629354
 H        -0.1942297618       -6.0082354222       -3.6060311563
 H        -0.9861371791       -6.2220137036       -7.7276864338
 H        -2.0218107406       -7.2129525624       -6.6128326392
 H        -2.5607977140       -5.5948391885       -7.1662657381
 H         0.4845059954       -1.2928501244       -7.7405125453
 H         1.4960271811       -2.3146117976       -6.6266870132
 H         2.1935265279       -3.4618476263       -3.8844862652
 H         3.6634362969       -2.6637103012       -3.4900427136
 H         3.5729411000       -0.0931858086       -4.6620994454
 H         2.6538301282        0.0570426872       -6.1908293671
 H         2.9930644111       -1.6188464053       -5.3960904622
 H         0.4487463142        0.7028275154       -3.1484771720
 H         2.0295874464        1.3641063088       -3.5565173529
 H         0.7722848786        1.4097592955       -4.6357651450
 H         1.1868260745       -3.4060090280       -1.6688494477
 H         2.9233379342       -4.2380741901       -1.5391710981
 H         2.7194962420       -1.5350189184        3.2740297410
 H         3.9061356533       -0.7105001650        2.1820088025
 H         1.3117635431       -4.3925653443        0.1583851729
 H         0.3542759568       -3.0413529940        0.9313205555
 H         1.1118014426       -4.1826501091        1.9564123112
 H         4.6581591664       -2.8530856839        1.2009734284
 H         3.5115582913       -3.3028431296        2.4757289331
 H         3.6192957658       -4.3201124403        0.9418539550
 H         1.7659654244        0.9556459705        3.1578302225
 H         3.3294053011        1.3818424737        3.1236701908
 H         4.1496002394        3.1292007223        7.8875902379
 H         4.6345658364        1.4963755141        8.2188973808
 H         0.9847034898        2.4911477792        5.4724439589
 H         2.3500183524        3.0456399687        4.5503807816
 H         2.0720307853        3.4435885574        6.2478926153
 H         2.9805712875        0.2670880044        7.6447621613
 H         1.8725847276        1.7663250087        7.9156456664
 H         1.3763620740        0.3256857027        7.0932455206
 H         6.9631205691        1.9160069925        7.7330271619
 H         6.3992784940        3.4371663901        6.8871327970
 H         8.4245434073        3.7798342362       11.8286328683
 H         7.5869593780        2.1712326945       11.2650316544
 H         9.3412416014        2.2809690123       11.9194049149
 H         9.8642077362        4.0082276698        7.5994271764
 H         8.4787455407        4.9342170884        7.0278592750
 H         8.4962924332        3.0610970187        6.9408088721
 H         9.2893574633        5.3478026456        9.9404476135
 H         8.3741956148        6.0418563252        8.6750419325
 H         7.5368931809        5.5480037940       10.3078896424
 Na       -0.5494229695       -0.7006134868       -1.0614346267
