155

 C        -7.8272327155        6.1834588160       -5.8146446765
 C        -8.5829691107        5.7178547634       -4.5370592089
 C        -8.8750810003        4.1806106078       -4.4823946133
 C        -7.6884640911        3.4350150586       -3.9295750292
 C        -6.9607144588        3.4682717671       -2.3751771147
 C       -10.1847709408        4.1374415131       -3.5761363552
 C        -9.2517027857        3.6755317225       -5.9619526361
 O        -8.9201674647        6.5472725422       -3.7387216299
 O        -7.1537594423        2.4703174694       -4.4856393846
 C        -5.4001591174        3.4239264187       -2.5526341631
 C        -4.7996625084        2.2935293584       -1.6072120382
 C        -3.3843845801        2.7046316759       -0.9455534357
 C        -2.7153422137        1.3030660963       -0.5621235094
 C        -3.5443991712        0.3167415831        0.2810638560
 O        -5.6037593674        1.4539153992       -1.2329595066
 O        -1.6188798274        1.0406079688       -1.0245500550
 C        -2.4232700457        3.5023929753       -1.9133208886
 C        -3.8208240072        3.5332231173        0.2211154301
 C        -4.3562251192       -0.6624185306       -0.7760962300
 C        -3.6334789833       -2.0902722553       -0.7417419070
 C        -4.5898626793       -3.2151678225       -0.4077701690
 C        -4.1740655887       -4.4357092120       -1.3249553330
 C        -3.9705715313       -4.1335664725       -2.9141221506
 C        -4.2355309758       -3.4464533275        1.1875449708
 C        -6.0404909586       -2.8238843284       -0.6298640758
 O        -2.4063680501       -2.1923825391       -0.8523807864
 O        -3.9449161659       -5.5302282274       -0.9739710724
 C        -3.0320144874       -5.2296124413       -3.4578410995
 C        -2.4436944823       -4.7736771464       -4.8442881557
 C        -1.2548486569       -5.4417658148       -5.4483574839
 C        -0.2214460356       -4.2397613006       -5.5653935192
 C        -0.4664535392       -3.2144101804       -6.8005495971
 O        -2.9744249638       -3.8298873585       -5.3111738326
 O         0.8812712460       -4.3351035572       -5.0624886596
 C        -0.5344757510       -6.5855656836       -4.6363633006
 C        -1.6477925157       -6.1419402280       -6.7549697110
 C         0.5714835129       -2.0850199558       -6.6854486871
 C         0.2564675496       -1.0173450523       -5.5570477955
 C         1.4086729149       -0.5037751155       -4.5398141247
 C         1.4797916129       -1.4525198809       -3.3293067933
 C         2.5565061112       -2.5285755000       -3.2762966077
 C         2.8144770039       -0.4993077262       -5.2768043011
 C         1.2616283119        0.9304698010       -4.0802194198
 O        -0.8090508204       -0.5291445675       -5.2938672243
 O         0.6243172888       -1.3732622033       -2.4545850840
 C         2.3717653354       -3.4357969353       -2.0866428310
 C         2.8585710884       -2.5389251171       -0.7650816854
 C         2.4296217096       -2.8492335890        0.7709235332
 C         2.1593618601       -1.3605309925        1.3789513092
 C         3.1754829580       -0.8538042745        2.5503270859
 O         3.6050783215       -1.6206253654       -0.8913193356
 O         1.3686686449       -0.6320470731        0.7631752746
 C         1.2709701152       -3.8025479012        1.1033196645
 C         3.9200063127       -3.1665226837        1.2643976418
 C         2.7680054755        0.4381021491        3.3422182556
 C         3.1233194397        0.3057530295        4.8981321077
 C         3.0627162405        1.4411911118        5.9508609325
 C         4.4597843954        2.0839633652        6.0388827561
 C         4.9225382103        2.5865915914        7.4797292402
 C         2.0842063999        2.6671280637        5.6240019211
 C         2.6785801149        0.6107990366        7.2577667111
 O         3.5249812953       -0.7770810215        5.3163758966
 O         5.0369044245        2.2919694874        5.0174053365
 C         6.4389438117        2.6847882856        7.4811489870
 C         6.9869972147        3.4120787470        8.8324516962
 C         8.3386770625        4.0072632185        8.7912712346
 C         9.3850965765        2.9853909822        9.6401355752
 C         8.7301648262        2.4595160471       10.9432357127
 O         6.2267749310        3.4220309659        9.7640631413
 O        10.4321805782        2.7279805938        9.1520460055
 C         8.9451475957        4.2441075450        7.4154988738
 C         8.2706632188        5.3760058699        9.4273935183
 H        -6.9418320862        6.7191991435       -5.5234725070
 H        -7.8250428779        5.4794631140       -6.6006722767
 H        -8.6284586161        6.9063907447       -6.2046234690
 H        -7.3065205708        4.3341889848       -1.7268637374
 H        -7.4346623275        2.5743719862       -1.8701279949
 H       -11.1074124413        3.6564412374       -4.0061632847
 H       -10.4807063491        5.2058459544       -3.3980043820
 H        -9.9873988701        3.6396963939       -2.5470847265
 H        -9.4737490249        4.4738586110       -6.6166708339
 H        -8.5143858904        3.0792540728       -6.2960408913
 H       -10.0994508740        3.0044833832       -5.7844107990
 H        -5.1231759470        2.9638114436       -3.4872225907
 H        -4.9177116640        4.3239089880       -2.3856109674
 H        -2.9925636652       -0.4156619783        0.9121892865
 H        -4.2062426909        0.8226389706        0.9346939497
 H        -1.7265872970        4.0218891098       -1.2083417979
 H        -2.7347157046        4.4025565029       -2.4349388919
 H        -1.8347887677        2.8051289701       -2.4256554843
 H        -4.6452517376        3.1172632517        0.8062674208
 H        -2.9906650124        3.7336633784        0.8596346671
 H        -4.1097278280        4.5327872905       -0.1464653529
 H        -4.2400313872       -0.2474116720       -1.8016230228
 H        -5.4475178869       -0.6690227577       -0.4084853718
 H        -4.9042682094       -4.3713004133       -3.4221678540
 H        -3.5655566644       -3.1412184333       -3.0340421992
 H        -4.4355048528       -4.5333292796        1.4671637306
 H        -4.8869518674       -2.8735715159        1.7709202482
 H        -3.2222374438       -3.3037516895        1.3063622477
 H        -6.0568920969       -2.2625451140       -1.5249062556
 H        -6.6247833372       -3.7355389013       -0.9213286048
 H        -6.4889909664       -2.2403785478        0.1646902482
 H        -2.1329489615       -5.2828733236       -2.7157371752
 H        -3.5171380938       -6.1238078301       -3.6308888070
 H        -0.2901113014       -3.8706598562       -7.7422433968
 H        -1.5316192278       -2.7963637394       -6.9685118144
 H         0.4007867393       -6.8051660587       -5.1461824144
 H        -1.1072422856       -7.4664426507       -4.3574940655
 H        -0.3775479538       -6.1901701840       -3.6165888855
 H        -0.7508279137       -6.3564033535       -7.3047911034
 H        -2.0442891011       -7.1196354558       -6.4270984723
 H        -2.4371417755       -5.6502887747       -7.3018373962
 H         0.5927267455       -1.5781933668       -7.5342339648
 H         1.6398979078       -2.5639850433       -6.5976652318
 H         2.6717773180       -3.2854403896       -4.1786681185
 H         3.4690578038       -1.9118433808       -3.1984180208
 H         3.5168735454        0.1287315128       -4.5165486514
 H         2.5777911983        0.2149781172       -6.0982027283
 H         3.1594034295       -1.5179553187       -5.5872923878
 H         0.1637031781        1.1908826097       -4.1216350402
 H         1.5036965148        1.1046055032       -3.0722766485
 H         1.9033692191        1.7935433543       -4.5332111164
 H         1.3735245385       -3.4731888839       -2.0615648880
 H         2.8776544747       -4.4341734166       -2.1124963817
 H         3.1726355077       -1.7382257805        3.1958082924
 H         4.1564479980       -0.6352279351        2.0827071447
 H         1.0292243763       -4.5159807601        0.3401877309
 H         0.3807209474       -3.1674308328        1.4010278345
 H         1.3701072378       -4.2260693099        2.0169951839
 H         4.2559394889       -2.1670292585        1.0835109063
 H         4.0894400165       -3.3399508779        2.4135166389
 H         4.3937517861       -3.9595965000        0.6691689905
 H         1.6268308624        0.6838408353        3.4262674299
 H         3.0910170548        1.4629862781        3.0205393477
 H         4.4645157465        3.5652738087        7.6329879805
 H         4.5497020538        1.9217686688        8.3293736800
 H         0.9934021852        2.4673262880        5.4491466724
 H         2.4018639750        3.0999206917        4.6098998369
 H         1.9515482246        3.3669589824        6.4026081174
 H         3.3378101782       -0.2639050555        7.3528809268
 H         2.5386104529        1.3024763686        8.0421174112
 H         1.6335743291        0.1750212890        7.0739019948
 H         6.9119273058        1.7314349910        7.3515176176
 H         6.6603977431        3.4375892061        6.5863860809
 H         7.9358274785        3.1468920160       11.1986057040
 H         8.3686240833        1.5008868553       10.5809715935
 H         9.3236110097        2.3946874147       11.7559948138
 H         9.6412236390        5.0619287646        7.5826893239
 H         8.2162370708        4.6647911177        6.6788622692
 H         9.5083549165        3.4015631955        7.0240429369
 H         9.1568659667        5.8971740394        9.1134319633
 H         7.4008502765        5.8499779563        8.9970174634
 H         8.2235306275        5.1189337744       10.5442604355
 Na       -0.4630900160       -0.9388523180       -0.5936787998
