155

 C        -7.7797651412        6.3921313577       -5.4129204408
 C        -8.8006777293        5.7869122192       -4.4650859145
 C        -9.1191009265        4.2573589121       -4.5778893981
 C        -7.6095964306        3.6206312420       -4.4217025285
 C        -6.9091962555        3.7083398472       -3.0262069780
 C       -10.0832035140        3.8292679965       -3.3757350141
 C        -9.8067396436        3.9079921243       -5.9817185771
 O        -9.1093012199        6.3847022232       -3.5117251275
 O        -7.2530243735        2.7929455910       -5.1618035279
 C        -5.4276137943        3.5619532381       -2.9115476649
 C        -5.0107437836        2.6080083867       -1.7058488619
 C        -3.6855050604        2.7112856031       -1.0098248330
 C        -2.9478566771        1.2687472213       -0.5222199729
 C        -3.5183162435        0.5154650136        0.5963158645
 O        -5.9049174931        1.8540890014       -1.2653671231
 O        -1.7807381358        1.1162540631       -0.8264926045
 C        -2.6468565389        3.4176181518       -1.9151960863
 C        -3.7705457394        3.8237037071        0.2205902404
 C        -4.6840250368       -0.5748410380        0.5148668856
 C        -4.0100535290       -1.9650209401       -0.0784305083
 C        -4.8611473827       -3.2729338656       -0.1523675350
 C        -4.2907931600       -4.4106359848       -1.2074121742
 C        -3.9520493023       -3.8976156635       -2.6005763111
 C        -4.8801139862       -3.8332379699        1.3445604034
 C        -6.1999429446       -2.8269180941       -0.6992540964
 O        -2.8226680508       -1.9663136200       -0.3604564228
 O        -4.3461300597       -5.5621102416       -0.8863552004
 C        -2.9120542931       -4.7829541866       -3.1787023096
 C        -2.6579366121       -4.6584535812       -4.6850197481
 C        -1.4011383829       -5.5157332699       -5.4185320574
 C        -0.2524233308       -4.5288204206       -5.6400326668
 C        -0.4241771791       -3.2431361593       -6.6196707023
 O        -3.3893509798       -3.9735240088       -5.3844573342
 O         0.7802251174       -4.7295528813       -4.9980845317
 C        -0.8778902394       -6.6863303228       -4.4310454980
 C        -1.8745154033       -6.0258263584       -6.8789996911
 C         0.7970157341       -2.2432510158       -6.4994899692
 C         0.4783818718       -0.9620417568       -5.7524849375
 C         1.5608923766       -0.3619869101       -4.5685900191
 C         1.3532367671       -1.2336481983       -3.3377712383
 C         2.2036190354       -2.5078362166       -3.1729717631
 C         3.0053270290       -0.3592643808       -5.1799552006
 C         1.0025439523        1.0423407553       -4.2565340077
 O        -0.4936892105       -0.3859419757       -6.0956287975
 O         0.4939767842       -1.0167086355       -2.4599727551
 C         2.0523872828       -3.0688063361       -1.8352239887
 C         2.9610582075       -2.2575663977       -0.6183558308
 C         2.7777673462       -2.9349034218        0.8293038837
 C         2.4584389137       -1.6693293734        1.6720398100
 C         3.5395427611       -1.0152445009        2.5286600665
 O         3.9413040928       -1.5335112238       -0.7831181238
 O         1.3149331198       -1.1216298490        1.6126690675
 C         1.4660128456       -3.8514606618        0.7999933750
 C         4.1233727002       -3.5188114344        1.4120278474
 C         3.0123891217       -0.0561134442        3.5625260722
 C         3.2233158527       -0.1472137094        5.0618895882
 C         3.0394464075        1.1879250971        5.8982404677
 C         4.5453827843        1.8522310367        5.6297101078
 C         5.3304478301        2.3988387394        6.9788248060
 C         2.0357847529        2.1827478420        5.3112605542
 C         2.7579294829        0.7566613307        7.3328113454
 O         3.6467217323       -1.1240109894        5.6871377245
 O         4.9366901384        2.0121546836        4.4909512764
 C         6.7980015464        2.8982861205        6.9334953153
 C         7.3115546276        3.2408446428        8.4280446202
 C         8.7081486421        4.0126840923        8.4988055994
 C         9.8861384807        3.0746117078        9.1345870021
 C         9.4655201349        2.1212956105       10.2996219480
 O         6.6256449609        3.2003445618        9.4062011347
 O        11.0578059566        3.2351472723        8.9113145068
 C         9.2545006660        4.7696459011        7.1752943021
 C         8.7169933381        5.1422793022        9.7360169648
 H        -8.0563665197        7.4989610474       -5.5216171893
 H        -6.7963916904        6.3209623527       -5.0525357657
 H        -7.8684858316        5.8520120476       -6.4175515873
 H        -7.1916298213        4.6646927191       -2.5853342245
 H        -7.4575602426        3.0003511997       -2.4115840317
 H        -9.9258880157        4.5972053990       -2.5589263450
 H        -9.9868380685        2.8833035664       -2.9903652612
 H       -11.1514010220        3.8460214348       -3.7900916092
 H       -10.8089298784        4.0827105200       -5.8492559053
 H        -9.4837825464        4.5560060669       -6.7679154456
 H        -9.4428629229        2.9318611733       -6.3433871521
 H        -5.0171828023        3.1506190247       -3.8238254482
 H        -4.9819434601        4.4790494803       -2.6415884938
 H        -2.6796176825        0.1635108438        1.1970048499
 H        -4.0295069579        1.2286793420        1.2186548642
 H        -1.5540217815        3.2327301816       -1.7072873878
 H        -2.8297204915        4.5008344006       -1.8341158345
 H        -2.7770910115        3.1497907431       -2.9108615509
 H        -4.4008700520        3.3124907503        0.9776198044
 H        -2.9387158552        4.3013513391        0.6477192323
 H        -4.2878334490        4.6950355318       -0.2316268459
 H        -5.5602021275       -0.2038826149       -0.0293600322
 H        -5.0623913093       -0.7179470421        1.5694168899
 H        -4.9221621772       -4.1818614878       -3.0825500965
 H        -3.7448368381       -2.8547838901       -2.5216290766
 H        -5.7562276671       -4.5831268608        1.4267610600
 H        -5.0008850844       -3.0470225929        2.0833937308
 H        -3.9347215645       -4.3083933069        1.5199191407
 H        -6.2963719696       -2.3097351618       -1.6966102135
 H        -6.8866411650       -3.7059995863       -0.6467812333
 H        -6.7548261099       -2.1966803596        0.0679921008
 H        -1.9928282155       -4.4326478526       -2.6991206223
 H        -3.2375360651       -5.8228715193       -3.0250419658
 H        -0.6557567999       -3.5967378589       -7.7279698304
 H        -1.4113563365       -2.7924328071       -6.3737187963
 H         0.0538887409       -7.1355602739       -4.7768956965
 H        -1.5931164398       -7.5437358331       -4.3766941041
 H        -0.7584652083       -6.2330340069       -3.4323868788
 H        -0.9949639663       -6.3383383845       -7.4637361484
 H        -2.4858282530       -6.9138872792       -6.7794251116
 H        -2.5347570776       -5.3743855730       -7.4184142559
 H         0.9721353678       -1.7996544801       -7.4358002566
 H         1.7553495917       -2.8101774006       -6.2601205325
 H         1.9843134274       -3.3183458366       -3.9987489077
 H         3.2560410194       -2.3764591115       -3.2199939145
 H         3.6919972969        0.3220422582       -4.4781633011
 H         2.9232422237        0.1062119587       -6.2364702373
 H         3.2838708069       -1.4188689906       -5.3825555853
 H         1.0066783508        1.7557446739       -5.0798841774
 H        -0.0476105281        1.0893822537       -3.7574114860
 H         1.5481301893        1.4836463237       -3.4291719176
 H         1.0850637850       -3.1817996700       -1.3953029000
 H         2.5590137010       -4.0015623029       -1.7661361688
 H         4.2881418631       -1.7229769496        2.7834939665
 H         4.0083150963       -0.3539032293        1.7853972672
 H         1.6889490834       -4.7464442449        0.2309887741
 H         0.7046256588       -3.3987530293        0.1567777260
 H         0.9692836531       -4.0276555660        1.7731297570
 H         4.9636912724       -2.8176254521        1.3459891398
 H         3.9451569592       -3.8936947087        2.5058340759
 H         4.3021219767       -4.4564228161        0.8465384785
 H         1.8256051209       -0.2095750189        3.4820177361
 H         3.2505739798        1.0339250298        3.3788338898
 H         4.6607878879        3.1934153914        7.2956197016
 H         5.2873789299        1.5318055469        7.7288115085
 H         0.9675397834        1.8943003459        5.2454582866
 H         2.2457994179        2.4686031915        4.2267464348
 H         2.0861359265        3.0777052346        5.8511224050
 H         3.5055226909        0.0149956022        7.5887705845
 H         2.8634607080        1.6258677374        7.9819730869
 H         1.7640472826        0.2382416385        7.3062742608
 H         7.4536024111        2.2033710435        6.4741149689
 H         6.9954049752        3.8569821908        6.3072745116
 H         8.4137473038        2.1521277133       10.5716336315
 H         9.8714471494        1.1652175170        9.8756614358
 H        10.0733525167        2.4734910181       11.1083993011
 H        10.3806096895        4.7668252426        7.3051382080
 H         8.7603950921        5.7479715528        7.1001974264
 H         8.9018585038        4.2729378380        6.2283388969
 H         9.7306035035        5.2076972019       10.0297332539
 H         8.2758180140        6.0732179132        9.3063023328
 H         7.9944235809        4.7014538571       10.5308261128
 Na       -0.5499846143       -1.0166636773       -0.4613978438
