155

 C        -9.0244655231        7.1479472730       -4.0512430879
 C        -8.9248082690        5.6749673735       -3.5247822448
 C        -8.6577575702        4.4207575362       -4.5048073300
 C        -7.1869193422        3.8724815794       -4.2140604105
 C        -7.1533672676        3.2785127396       -2.7426613383
 C        -9.7150909235        3.1978320223       -4.1059224768
 C        -8.7815223138        4.7920328780       -6.0094927438
 O        -9.0641967289        5.3769118358       -2.3645962145
 O        -6.3131185863        3.8858485748       -5.0280461896
 C        -5.8757741763        3.6941089711       -1.9111367611
 C        -5.1543630744        2.4357692701       -1.3979937250
 C        -3.5979640442        2.5290237426       -1.1561220598
 C        -2.7640568646        1.5824395817       -0.2334793377
 C        -3.3523502619        1.4500892126        1.2038767375
 O        -5.6639662402        1.3397713364       -1.3909170707
 O        -1.8196308831        0.8583250745       -0.5811444416
 C        -3.0690294241        2.0668120413       -2.6428986677
 C        -3.0846284827        3.9285593006       -1.1498467557
 C        -4.3125300149        0.2472399277        1.4079952557
 C        -3.6254567359       -1.1742998341        0.9412461841
 C        -4.4944240197       -2.3455652744        0.3019702713
 C        -3.4716731937       -3.3588146812       -0.5957430626
 C        -3.0769213967       -3.0797271574       -1.9608303702
 C        -4.9905327644       -3.1867006705        1.5776250618
 C        -5.7042588739       -1.9149424439       -0.5439181966
 O        -2.4431623844       -1.2763152924        0.8844232226
 O        -3.0286841234       -4.3474935606       -0.0780512255
 C        -2.6350441426       -4.3939961472       -2.6814474794
 C        -3.0820698859       -4.3537219711       -4.1691625937
 C        -2.0930082884       -4.9898181453       -5.3307087048
 C        -0.8398479707       -4.1203409661       -5.4769490921
 C        -0.6806340275       -3.2760927964       -6.7780801705
 O        -4.0688489991       -3.8810591937       -4.6409928044
 O        -0.0095071972       -3.9985461628       -4.6155369197
 C        -1.5123403397       -6.3579584270       -4.8411357699
 C        -2.9331677585       -5.3214275790       -6.5907123409
 C         0.1738491040       -1.9616721048       -6.5286293377
 C        -0.1644003025       -1.3782969325       -5.1885350985
 C         0.9076398330       -0.6292631977       -4.3236552273
 C         0.7252842659       -1.3374680236       -2.9123951717
 C         1.8246455382       -2.3879871044       -2.6207762384
 C         2.4052971737       -0.3932433848       -4.8769524229
 C         0.2688444552        0.7903756351       -4.1680691244
 O        -1.3097822735       -1.2580950677       -4.7239099717
 O        -0.2526089578       -1.0704089971       -2.1812667086
 C         1.4329897773       -3.2165010026       -1.3920105832
 C         2.2003985331       -2.7076401736       -0.0745151183
 C         1.5513566146       -3.3541959580        1.2372695486
 C         1.6710574523       -1.9944883415        2.1205736194
 C         2.5485980600       -1.9400110292        3.3353877226
 O         3.1691298418       -2.0594858707       -0.0562733956
 O         0.9247257946       -1.0978066495        1.7916779523
 C         0.0789536640       -3.9318641514        1.3781722888
 C         2.5019835733       -4.5110163518        1.6138469842
 C         2.5086561995       -0.5804371327        3.9436591559
 C         3.6445180522       -0.2741816426        4.9115640738
 C         3.5835225337        1.1545230086        5.6284721730
 C         5.1063364211        1.6943129735        5.3848937121
 C         6.0974840602        1.6252571198        6.5154443613
 C         2.7914698309        2.2116250729        4.8019796013
 C         3.1967812355        1.1204248373        7.0860533334
 O         4.5886164201       -1.0340351532        5.0226236233
 O         5.4437729384        1.8052005843        4.2018599282
 C         7.5114353651        1.8705894116        5.9446456305
 C         8.4836822702        2.0968727120        7.1296158590
 C         9.3998930550        3.5526783768        7.0395431323
 C        10.6084353765        3.2545492814        6.1551745626
 C        12.0068478744        2.8513174586        6.7356327526
 O         8.5409078581        1.4248309417        8.1988875671
 O        10.4716874950        3.2721012182        4.9737513449
 C         8.5938997283        4.6561098533        6.3644443463
 C         9.6235596848        4.1457834307        8.4297011169
 H       -10.1002421099        7.3864530674       -4.1455922833
 H        -8.6992357950        7.7414021177       -3.2469230442
 H        -8.4134669340        7.3078788280       -4.9946532041
 H        -8.1105561670        3.4267128539       -2.2315135949
 H        -6.9626799769        2.2080077101       -3.0995066332
 H       -10.7517026692        3.5561210515       -4.2480013986
 H        -9.6430388750        2.5686579602       -3.1824193989
 H        -9.7808453386        2.5128637551       -4.9890990961
 H        -7.7665068157        4.7506698005       -6.4047201768
 H        -9.4425447818        4.1556617713       -6.5522804206
 H        -9.3819528827        5.6416551739       -6.2773670272
 H        -5.1608247943        4.1481169577       -2.5948279560
 H        -6.0934342871        4.4186895247       -1.0591644304
 H        -2.4900220112        1.2228869440        1.8323931944
 H        -3.7182264568        2.4551885217        1.5737004389
 H        -2.0613017294        2.3157845182       -2.7159498254
 H        -3.6244800863        2.5058677900       -3.4642799054
 H        -3.2010058470        0.9562354842       -2.8053633066
 H        -3.2072155345        4.4441248673       -0.2119296542
 H        -1.9744288203        3.8211652506       -1.3163139961
 H        -3.3070262994        4.3971027682       -2.0722611656
 H        -5.3377534937        0.3572116511        0.8905422188
 H        -4.5852340270        0.1214343778        2.4466317955
 H        -3.9860947461       -2.5461868165       -2.3775345017
 H        -2.3072038224       -2.3171532297       -1.8587953116
 H        -5.2513654985       -4.2959242612        1.4675895686
 H        -5.9228737186       -2.7753863814        1.8819951547
 H        -4.3748807800       -3.1182227736        2.4251518688
 H        -5.5713157180       -1.0104653205       -1.0779141783
 H        -5.9521253059       -2.5865868233       -1.3467403218
 H        -6.6462289809       -1.6784125477       -0.1219868298
 H        -1.5398048417       -4.5479602454       -2.7049635853
 H        -3.0920447545       -5.2042091244       -2.0552122997
 H        -0.1532946983       -3.8468864663       -7.4530685214
 H        -1.6152796648       -2.8806292946       -7.2192138660
 H        -0.7909287729       -6.6490993793       -5.6144478530
 H        -2.3087122850       -7.0923651248       -4.8399173779
 H        -1.1698743128       -6.2156961735       -3.8264645599
 H        -2.4659721830       -5.2412749360       -7.5630603546
 H        -3.2359045651       -6.3628007111       -6.5445158710
 H        -3.8433675234       -4.7280076260       -6.6839499335
 H         0.0990034371       -1.2245348885       -7.2084091968
 H         1.2750620552       -2.3737205088       -6.5425683683
 H         1.9968860907       -2.7791903083       -3.6555067329
 H         2.7251335622       -1.7111513409       -2.4738074510
 H         3.0494818771       -0.6735360121       -3.9714866790
 H         2.5053650505        0.6933311511       -5.0604700376
 H         2.4827925721       -0.7597658435       -5.9252570257
 H        -0.6929728289        0.8247193108       -3.5407684164
 H         0.9882915545        1.3583934166       -3.6090174421
 H         0.1163759219        1.1476659533       -5.2467735561
 H         0.4544244739       -2.9814060675       -1.2398518478
 H         1.6159560365       -4.2168176543       -1.7141680332
 H         1.9467031234       -2.6659587301        3.9736675916
 H         3.5936171062       -2.3710754864        3.1691782636
 H        -0.4451351905       -3.2038774645        1.9722684511
 H         0.0643247918       -4.9386042458        1.9464657843
 H        -0.3084374002       -4.2355090451        0.4830566618
 H         3.5480138004       -4.1805706416        1.6573782635
 H         2.3649456120       -4.9319763435        2.6249792668
 H         2.4929027849       -5.3697272083        0.8418390474
 H         1.5614455998       -0.3366721091        4.3174756569
 H         2.5060241712        0.1225074623        3.1248910004
 H         5.8127544949        2.1246330379        7.4164239535
 H         6.1363462927        0.5836399519        6.9114248852
 H         1.8029471898        1.8270998321        4.4804031504
 H         3.3079064934        2.7469671694        3.9892873723
 H         2.6726146086        3.0174737656        5.6039608151
 H         3.8103134333        0.3209894655        7.5928614338
 H         3.4501549095        2.0695678845        7.5768112330
 H         2.2137118838        0.7604839596        7.1556555658
 H         7.8026663739        0.9548600080        5.3756196131
 H         7.5511831528        2.6925348799        5.3333501740
 H        12.5610990415        3.6976755416        7.1999673188
 H        11.6949739462        2.1778996731        7.4930698331
 H        12.5668273496        2.4697287186        5.9768028027
 H         9.2080432326        5.5738017832        6.3882432304
 H         7.5648339660        4.6596429724        6.8724982817
 H         8.3005636213        4.3921010861        5.3255364470
 H        10.2941990118        5.0542508417        8.3929272809
 H         8.6051997041        4.2936245877        8.8120230448
 H        10.1054663208        3.3947732742        9.1147265775
 Na       -0.2894567894       -0.8284919949        0.0320332327
