155

 C       -10.0333594605        6.6279288517       -3.1753532798
 C        -9.9228372817        5.1851363281       -3.0359302278
 C        -8.8397738977        4.5777609180       -4.0761050534
 C        -7.4023846747        4.8989537232       -3.2500057003
 C        -6.6638716297        3.7048333357       -2.6957774298
 C        -9.1983451869        3.0803662114       -4.2208907743
 C        -8.8756735433        5.3912263579       -5.4047621363
 O       -10.4547578623        4.3922770233       -2.2953336395
 O        -7.0853599216        6.0549512565       -3.0595194812
 C        -5.1648632468        4.1168871315       -2.3819082603
 C        -4.2717265581        2.9414349910       -1.7752795949
 C        -2.8464681251        3.0876797834       -0.9462243044
 C        -2.5576278270        1.9444110147        0.0321739346
 C        -3.5367174348        1.4886954787        1.1389997060
 O        -4.4725643885        1.7690782246       -2.0593626117
 O        -1.3794714319        1.5054508295        0.0126039174
 C        -1.6833039531        3.2213631143       -1.9523476223
 C        -3.0104135118        4.3353561229       -0.0308212658
 C        -4.4132627988        0.3592320202        0.5661774860
 C        -3.8391386627       -1.0799924850        0.6954137174
 C        -4.8026078835       -2.2819908817        0.6152292096
 C        -4.5630832890       -2.9228847141       -0.8390205457
 C        -4.8424735611       -2.0355759178       -2.1334296511
 C        -4.3992218935       -3.3701176849        1.6370767802
 C        -6.3645221917       -1.9592923768        0.5879557095
 O        -2.7319768617       -1.1978788250        1.1604663686
 O        -4.2362573753       -4.0922769745       -0.9762018731
 C        -3.8123043662       -2.5546112723       -3.1193570191
 C        -4.3297156329       -3.6402040390       -4.0944732553
 C        -3.2342770561       -4.7633357961       -4.4706292537
 C        -1.8943340459       -4.1297205793       -4.6879374450
 C        -1.7760480387       -3.2208138333       -5.9274012019
 O        -5.4306994512       -3.6631607880       -4.6473510290
 O        -0.8414081866       -4.3703235894       -4.1212310917
 C        -3.0517453092       -5.8481764389       -3.3331352563
 C        -3.7565595349       -5.5976875145       -5.6781891597
 C        -0.6264502339       -2.1526768446       -5.8858722291
 C        -0.3423669171       -1.3931301254       -4.5813563411
 C         0.9977632085       -1.7976580203       -3.7616533587
 C         0.6977814903       -2.4936552621       -2.3454279661
 C         1.2372055671       -3.8139776484       -2.0535351781
 C         2.0483321038       -2.5871675989       -4.5764370128
 C         1.7325439594       -0.4535451220       -3.4308179495
 O        -0.9415942193       -0.4165310077       -4.2858325821
 O         0.0274880092       -1.9376329303       -1.5064973000
 C         1.2594636951       -3.8906297350       -0.5028012195
 C         2.2415091342       -2.9287422848        0.2099285094
 C         2.1605889809       -2.9332595234        1.8611644540
 C         2.3392416033       -1.3895951883        2.1672651172
 C         3.3393202433       -0.8708635357        3.2235857914
 O         3.2839133264       -2.5564762654       -0.2372783320
 O         1.5733586864       -0.5107073086        1.6991748276
 C         0.7898229704       -3.4609635299        2.3222691915
 C         3.3555514110       -3.9398749878        2.2053232547
 C         2.9094700645        0.2443058445        4.1288328313
 C         3.6132999230       -0.1443640123        5.4192525898
 C         4.2705897028        1.1276947795        6.1407908683
 C         5.6122362648        1.3119563084        5.1373555302
 C         6.9783696183        1.0518050985        5.7450773848
 C         3.3660393327        2.3701592605        6.1068911532
 C         4.6868351026        0.7706858447        7.5974947171
 O         3.6248750102       -1.2941646609        5.7372387948
 O         5.3535594168        1.6949828901        4.0349686503
 C         7.9905875057        1.3863561084        4.5725497016
 C         9.5705540045        1.2187791833        4.7608669405
 C        10.4131918514        2.5170984387        4.7637767333
 C        10.2840845535        3.2061576439        3.2314323725
 C        11.5823664566        2.9658740083        2.3449610213
 O        10.0057910745        0.1225824605        4.9430447220
 O         9.2349861338        3.5235344528        2.8246127843
 C         9.7988795976        3.6959405343        5.6716602841
 C        11.8518147030        2.2838260048        5.3544602955
 H        -8.9453805206        6.9907876870       -3.1939500906
 H       -10.4762789062        6.7576739008       -4.1616892393
 H       -10.5037106709        7.1764767895       -2.3339334543
 H        -7.0119780029        3.5049623844       -1.6331473361
 H        -6.8379659293        2.7774073277       -3.2499742901
 H        -9.9380903225        3.1120577553       -4.9843701888
 H        -9.6105137962        2.6663468363       -3.3757104047
 H        -8.3977861785        2.4075577629       -4.7051390173
 H        -8.4316442227        4.8904365640       -6.2573368926
 H        -9.8675021919        5.7440181787       -5.5856099092
 H        -8.3902752920        6.3342347492       -5.1784131756
 H        -4.5612378646        4.4240929540       -3.1533483516
 H        -5.2199251804        4.9255807236       -1.7030706890
 H        -3.1733304355        1.1598089929        2.0560200284
 H        -4.1987571878        2.3225807084        1.2827245891
 H        -0.6930911788        3.3654144855       -1.5014064121
 H        -1.7494526755        3.8492604303       -2.9180552283
 H        -1.6568400722        2.2042872817       -2.3822201135
 H        -3.6453814141        3.9197113766        0.7357065214
 H        -2.1151434945        4.7051575172        0.4892078074
 H        -3.3532582694        5.1934799090       -0.5138898281
 H        -4.7554789562        0.7387188498       -0.4428636534
 H        -5.2948866382        0.1492972197        1.1054373168
 H        -5.7178188666       -2.5882097859       -2.4719439266
 H        -4.9906537215       -0.9372224411       -2.0020478664
 H        -4.2260940263       -4.2981228396        1.3041735405
 H        -5.2857317498       -3.4770019638        2.2213750593
 H        -3.4784659572       -3.0512119019        2.1471553343
 H        -6.5807177141       -0.9901929005        0.1170775665
 H        -6.8391493895       -2.8492112122        0.0090244513
 H        -6.8021228305       -1.7941758194        1.6215339598
 H        -3.4149446009       -1.8021532157       -3.8192707882
 H        -2.9943248392       -2.7117062150       -2.5880956420
 H        -1.6272914942       -3.9237094611       -6.7421951870
 H        -2.7148798398       -2.6460908858       -6.0712754505
 H        -2.3796629309       -6.6030100249       -3.8216261202
 H        -4.0164076543       -6.2075459844       -2.9982238180
 H        -2.6069487919       -5.4208768542       -2.4077766685
 H        -2.8406961196       -5.7536915345       -6.2341868092
 H        -3.9951706319       -6.5957144131       -5.3121292045
 H        -4.6040190803       -5.1774996490       -6.2620136946
 H        -0.8284196414       -1.3688428719       -6.5369278348
 H         0.3838801666       -2.6635096473       -6.1051476352
 H         0.5962234361       -4.5332716850       -2.4359728276
 H         2.2218185302       -4.1525258066       -2.3404493023
 H         1.5893276397       -3.5468166318       -4.6392203638
 H         3.1082790504       -2.5338400693       -4.0942289694
 H         2.1435124065       -1.8597734369       -5.4413376341
 H         1.2991224114        0.1315140871       -4.1536274898
 H         1.4360064291        0.0660373228       -2.4915358288
 H         2.7866321506       -0.3656677840       -3.5810255401
 H         0.2366337585       -3.9608269532       -0.0799468984
 H         1.6668296019       -4.9184708877       -0.1159584701
 H         3.8665618563       -1.6202979343        3.8286904047
 H         4.0396746604       -0.3195726784        2.5693137825
 H         0.8361964152       -3.9202020138        3.2459809194
 H         0.4799696736       -4.3495919273        1.8130176937
 H        -0.0598961231       -2.7548931003        1.9827256484
 H         4.2950284615       -3.6703684576        1.9102806584
 H         3.4571626207       -4.1250086278        3.2758328492
 H         3.3284233229       -4.8630940748        1.5662158176
 H         1.8645947366        0.2453226915        4.4269756391
 H         3.2193822416        1.1855495618        3.7641820950
 H         7.1869655893        1.5271664337        6.6505744945
 H         7.1894277735       -0.0335670802        6.0562950290
 H         2.4231447691        1.9900742242        6.4611139559
 H         3.4565492894        2.7968019956        5.1114382834
 H         3.8835450675        3.1307631859        6.7137122857
 H         5.7038445943        0.3136483471        7.6603167779
 H         4.9116796398        1.6348378695        8.2257304926
 H         3.9235656542        0.2021341044        8.0613006400
 H         7.7808605930        0.6643909739        3.7666019651
 H         7.7587575412        2.4214269716        4.2426803261
 H        11.7680209008        1.9055096738        2.4458168568
 H        11.1904193295        3.2841487646        1.3689502038
 H        12.4248148704        3.4078995197        2.8297553564
 H        10.4547524222        4.3624104904        6.1016709175
 H         9.1513425838        3.3132977378        6.4910066415
 H         9.1503618813        4.3238664971        5.1005203079
 H        12.1967057285        1.2490201867        5.4538871366
 H        12.6447869132        2.8695136873        4.9426622585
 H        11.7690037468        2.5835111107        6.4551545996
 Na       -0.4025581438       -0.5471753001        0.4386932504
