155

 C       -10.3851684359        6.8186263384       -2.7404243511
 C        -9.9842761658        5.1690188999       -3.0400198095
 C        -8.8028439414        4.6400620904       -3.9838560950
 C        -7.4673914038        4.8425839624       -3.1413634348
 C        -6.3328122671        3.6862382491       -2.6873204577
 C        -9.0705186749        3.0765700205       -4.4485079316
 C        -8.6381276789        5.3948416092       -5.3106718564
 O       -10.5622345089        4.4167861402       -2.3286058444
 O        -7.2218811350        5.9990400932       -2.9164289661
 C        -4.8767340826        3.9783998979       -2.7833981765
 C        -4.1076489447        2.8687285267       -1.8015513291
 C        -2.7880338635        3.2952417672       -0.7702864803
 C        -2.4275340691        1.9711777411        0.0915595591
 C        -3.3363357220        1.5164944619        1.2544973414
 O        -4.4236586723        1.7316105336       -1.7905821146
 O        -1.3857147816        1.4776258179       -0.0869431038
 C        -1.6214235419        3.5368501651       -1.7988827342
 C        -2.7820392454        4.5909772237        0.0642715412
 C        -4.3756793072        0.4520831903        1.0039057832
 C        -3.8766555674       -1.0259935061        0.9123845819
 C        -4.8979139292       -2.2291488444        0.7176698385
 C        -4.6328904977       -3.0956985926       -0.8119042030
 C        -4.7800487076       -2.1877461695       -2.0774899861
 C        -4.6297257356       -3.3602058106        1.7397133607
 C        -6.3696009249       -1.8552091611        0.7473946785
 O        -2.6832832046       -1.2409096644        1.2063732290
 O        -4.6062763970       -4.3024673113       -0.8850661236
 C        -3.7161567406       -2.5940989454       -3.2226324376
 C        -4.2745208768       -3.7459827791       -4.1390126419
 C        -3.4143708106       -4.8812633504       -4.7240449637
 C        -2.0038368262       -4.1241952338       -4.9977533864
 C        -2.0181166885       -2.9561790615       -5.8725932971
 O        -5.4299429123       -3.6102637945       -4.5475182405
 O        -1.1263670143       -4.1936984111       -4.1459150195
 C        -3.2495588603       -5.8378711381       -3.4988416831
 C        -4.0525138579       -5.5524129363       -6.0255581005
 C        -0.7478993629       -2.2030380343       -5.9753215271
 C        -0.2876402632       -1.5572014650       -4.6151220987
 C         1.1305162462       -1.8866492794       -3.8295127783
 C         0.7229171894       -2.4791659349       -2.4439152605
 C         1.3610671011       -3.8076348340       -1.9473501561
 C         1.9479260582       -2.9826681850       -4.6295792911
 C         1.7817640043       -0.5413949561       -3.6463690808
 O        -1.0927162494       -0.8217839738       -4.0333074504
 O         0.0348395632       -1.7659300597       -1.6931378965
 C         1.4045022343       -4.0601770644       -0.4429045614
 C         2.3149839693       -3.0691119731        0.2919751966
 C         2.2294070088       -2.8127303947        1.8574785392
 C         2.2460394236       -1.2684678028        2.1244334735
 C         3.4113942945       -0.7072622407        2.9560356068
 O         3.0824833324       -2.4661364727       -0.4381775989
 O         1.2747629387       -0.5871508630        1.9287622295
 C         0.7981397966       -3.1743404329        2.5108673607
 C         3.3163515051       -3.5152953576        2.6853205586
 C         2.8576442486        0.1020058459        4.2446283844
 C         3.6933918171       -0.0886446370        5.5612640798
 C         4.4602286056        1.1001743464        6.2354331936
 C         5.6622380939        1.2325418909        5.3509948895
 C         7.1861204387        0.9976963151        5.7758483418
 C         3.6059771295        2.3966399819        6.1549160335
 C         4.7186179003        0.6026916846        7.6615775312
 O         3.4733921068       -1.1431314932        6.1522563126
 O         5.4684937206        1.6110465149        4.1809537382
 C         8.0275461490        1.6306756417        4.6057995241
 C         9.5110419581        1.3088194782        4.3896322904
 C        10.4775323661        2.4685552211        4.5453513225
 C        10.5090680063        3.0234298322        3.0521343374
 C        11.4692859359        2.8458320418        1.8195267618
 O         9.8837644122        0.1197177071        4.2579741754
 O         9.5213449521        3.7536716183        2.8130223422
 C        10.0246266001        3.5998527095        5.3329690143
 C        11.9049653353        1.9945205879        4.8712952868
 H        -9.5871284075        7.5083813564       -2.7863133436
 H       -11.1442837996        7.1717160903       -3.4193185117
 H       -10.6072648638        6.8858155272       -1.6520211530
 H        -6.4193163748        3.6366046346       -1.6153737005
 H        -6.4688118054        2.6882912288       -3.1209264488
 H       -10.0680393479        2.9318244704       -5.0039752525
 H        -9.0515812568        2.4881025655       -3.4579739335
 H        -8.2955197533        2.6554809836       -5.0081623519
 H        -7.6002843060        5.3799902552       -5.6252287401
 H        -9.4678774346        5.1277889297       -5.9345384194
 H        -8.9416664264        6.4207112306       -5.1291770127
 H        -4.3127063505        4.1311133297       -3.8039500722
 H        -4.6074830169        4.9441676112       -2.1893019499
 H        -2.7947198057        1.0288841278        2.1637970533
 H        -3.8959501743        2.4539222519        1.5324436834
 H        -0.7049560430        3.8981553106       -1.2907779988
 H        -1.9627216813        4.1935411526       -2.5437767074
 H        -1.2758432679        2.6763618881       -2.3998991953
 H        -3.6535451233        4.7679705596        0.6787403041
 H        -1.9215895171        4.5219876148        0.6880644974
 H        -2.5184438820        5.5334182763       -0.5199504345
 H        -5.0888686056        0.6474239956        0.2382572248
 H        -5.0694933065        0.2769938887        1.9020146539
 H        -5.7182365126       -2.3044623283       -2.6638547774
 H        -4.5407825085       -1.2024916860       -1.6902250863
 H        -4.3565194257       -4.2511600218        1.0304868127
 H        -5.3884888350       -3.7534470941        2.4354039163
 H        -3.6919626999       -3.0961247980        2.1912093337
 H        -6.4889799699       -1.2725771776       -0.2054703610
 H        -7.0133251622       -2.6732218915        0.6632107450
 H        -6.5382238541       -1.0883684229        1.5048763194
 H        -3.4458780473       -1.6632101714       -3.7552603173
 H        -2.6913734428       -2.7729894842       -2.7109025864
 H        -2.2267222948       -3.3437854078       -6.9190385466
 H        -2.8134058536       -2.3480855282       -5.5052596255
 H        -2.7125284793       -6.7047537179       -3.8135746475
 H        -4.1880610864       -6.0595707762       -2.9192719481
 H        -2.5931050987       -5.2756613596       -2.8254000850
 H        -3.4151556170       -6.2740092836       -6.5657347190
 H        -5.0489141292       -5.9855243781       -5.8702205739
 H        -4.2225482722       -4.6204258179       -6.5433666703
 H        -0.9169774208       -1.4389451831       -6.8072962329
 H         0.0455316293       -2.8999149147       -6.2957630898
 H         1.0278097397       -4.8235927957       -2.3163491625
 H         2.5093842823       -3.7767393260       -2.0841776817
 H         1.1606328576       -3.8043539439       -4.7120072088
 H         2.7609331175       -3.2917533844       -4.1022595603
 H         2.3522547188       -2.4591441144       -5.3935393890
 H         2.1942650086       -0.0416521875       -4.6370348318
 H         1.0863000895        0.2219757760       -3.2997030802
 H         2.5880258008       -0.6920937809       -2.8983297910
 H         0.4074313597       -4.0505379646       -0.0770298801
 H         1.6973639858       -5.0652346972       -0.2456855582
 H         3.8426790982       -1.5508364647        3.5370133569
 H         4.2115212979       -0.2109893464        2.3680864678
 H         0.8780914572       -2.7843951813        3.5495756755
 H         0.6589218814       -4.1955289374        2.9225440243
 H         0.0441667631       -2.8746356568        1.9128876396
 H         4.3708794994       -3.3521403012        2.2618834520
 H         3.2483058448       -3.1854093704        3.7289244995
 H         3.3650226154       -4.5558475307        2.6301206322
 H         1.8384664560       -0.2387508820        4.4692153175
 H         2.8289558301        1.2083176624        4.1509427023
 H         7.4500518330        1.3849904454        6.7915123355
 H         7.5300665794        0.0394008896        5.8619250230
 H         2.5759014779        2.0929768731        6.3360876840
 H         3.9271382494        2.8222616951        5.2468086332
 H         3.8642348889        3.0462549257        7.0199446536
 H         5.6711922458        0.2192394879        7.8702361247
 H         4.7124348243        1.3399026853        8.4294605340
 H         3.8891006419       -0.0255647315        7.9216679678
 H         7.6390366673        1.1275498484        3.7361818911
 H         7.8253181853        2.6714531367        4.5004272480
 H        12.1884262818        2.1238459653        2.2305516423
 H        10.9176138325        2.3726582670        1.0622502060
 H        11.8438618129        3.8385181254        1.7259747431
 H        10.5787961066        4.5239136566        4.9957391482
 H        10.2772265295        3.5505528663        6.3654304756
 H         8.9954498264        3.9528407839        5.1521377916
 H        12.1873506505        1.0346054529        4.3664260568
 H        12.6241627427        2.8065342184        4.5037306096
 H        12.1375277456        1.8411071881        5.9076737668
 Na       -0.5502751317       -0.7188708600        0.4726614870
