155

 C       -10.0739372793        6.3661147306       -2.4519457779
 C        -9.6988746071        5.0033402946       -2.7450498295
 C        -8.3934519275        4.6169162025       -3.7926107102
 C        -7.0604656004        4.8056784902       -2.8952847458
 C        -6.1481712481        3.5953361500       -2.8148251585
 C        -8.5031747177        3.1985815034       -4.2552522750
 C        -8.2710957266        5.6590054542       -4.9485164325
 O       -10.4017850118        4.1240110890       -2.3797799963
 O        -6.8257249438        5.8095062897       -2.3452493030
 C        -4.8075743214        3.9481037859       -2.2110400592
 C        -4.2714090693        2.8267580107       -1.4831242310
 C        -2.9100195605        3.1948324491       -0.7565633483
 C        -2.2951955347        1.7240053209       -0.1398246733
 C        -2.9360841212        1.2568810034        1.1948627575
 O        -4.8497077023        1.7594592464       -1.5309230045
 O        -1.4807231159        1.0817805056       -0.7230075586
 C        -1.8294234095        3.7340484769       -1.7435998184
 C        -3.1021987100        4.1653871016        0.3664786991
 C        -4.2086161616        0.4639136284        1.0237768066
 C        -3.8633620864       -1.0389721056        0.8784939082
 C        -4.9898513155       -2.0304832006        0.9414124090
 C        -4.9662436253       -2.9887658692       -0.5334474903
 C        -4.7389873572       -2.1200726601       -1.8178949480
 C        -4.9362386814       -3.0116912378        2.0873332023
 C        -6.3618299172       -1.2995396891        1.0088278426
 O        -2.7249440843       -1.5284232540        0.7958492595
 O        -4.8555901670       -4.2031670489       -0.4633886732
 C        -3.7446282562       -2.8906604467       -2.8059787995
 C        -4.4549360644       -3.4343717252       -3.9882139106
 C        -3.7309055644       -4.5169920708       -4.8619652662
 C        -2.2298380925       -3.9525239446       -5.1554948880
 C        -2.0156740358       -2.8954103111       -6.1784276304
 O        -5.6717927360       -3.4608298170       -4.1515536974
 O        -1.3468742783       -4.3876739931       -4.4698658531
 C        -3.4708983787       -5.8012673377       -4.0858444157
 C        -4.5059704127       -4.7909451781       -6.1666819747
 C        -0.7131083190       -2.1600339668       -5.9281225688
 C        -0.3609128293       -2.0223336041       -4.4427323072
 C         1.1038886127       -2.2566231765       -3.8933459780
 C         0.9352410266       -2.4904718407       -2.3586836054
 C         1.3421187742       -3.7521908574       -1.6833007408
 C         1.8936833737       -3.5387325647       -4.5446297860
 C         1.6876412876       -0.8285912627       -4.1701942289
 O        -1.2388726285       -1.5350107030       -3.7091864447
 O         0.4407108982       -1.5083965008       -1.7695777771
 C         1.0838691882       -3.5605577321       -0.2549319235
 C         2.0570766685       -2.7317673257        0.5507681275
 C         1.9196975663       -2.5626090566        2.0902049815
 C         1.8954487812       -1.0005676280        2.4732896570
 C         3.0015153506       -0.4896223184        3.4422664047
 O         2.9184839168       -2.1865202406       -0.0510712980
 O         1.1378854718       -0.3756510674        1.8200046852
 C         0.6599941418       -3.0858014226        2.8101875525
 C         3.2881221035       -3.2458185582        2.6751201405
 C         2.5228781391        0.4271315785        4.5981264974
 C         3.5339343710        0.0370800743        5.7857233084
 C         4.7152216874        1.0092999688        6.2523942332
 C         5.6855218057        1.3107554718        5.0471965565
 C         7.3228246198        1.2257833599        5.1916821817
 C         3.9634710919        2.3158349864        6.6914552654
 C         5.4498096357        0.2622525052        7.4239515828
 O         3.5059988713       -1.0627332284        6.2218893350
 O         5.2513337084        1.4877190123        3.9115858482
 C         8.1187469697        2.0603610617        4.2298604242
 C         9.4640847688        1.3809338296        3.9705323263
 C        10.8123334908        2.1511627790        3.8545905585
 C        10.6862128528        3.0831299899        2.5497956995
 C        11.1761537349        2.5187334649        1.2403243913
 O         9.4691854751        0.1911017617        3.6387891423
 O         9.9678378552        4.0718200880        2.6077152879
 C        10.6831956153        3.3201387059        4.9768476748
 C        12.1636009468        1.4044308512        3.9084418654
 H        -9.4498552658        6.7864436644       -1.5965433431
 H        -9.8483090939        7.0251086470       -3.2353219042
 H       -11.1532724609        6.4949090335       -2.0180630867
 H        -6.7740401246        3.0336530851       -2.1807978596
 H        -6.0083457509        3.1908919288       -3.7861799614
 H        -9.3657746885        3.0755141860       -4.9474724757
 H        -8.5837477034        2.4754289493       -3.4214040881
 H        -7.5285554618        3.0290581997       -4.7208333055
 H        -7.8759386912        5.1454694900       -5.8203740072
 H        -9.2829104580        5.9615886172       -5.1283906464
 H        -7.6624853641        6.5467005119       -4.7677666938
 H        -3.9666110566        4.2722930897       -2.9329030389
 H        -4.8901432424        4.9148084193       -1.5571020132
 H        -2.0383028305        0.6723579957        1.5096228432
 H        -3.1794424094        2.0045897136        1.9503299324
 H        -0.8245411115        3.7485120886       -1.3513791219
 H        -2.1568992200        4.5845711284       -2.3464397225
 H        -1.6653962494        2.9119176095       -2.4702477565
 H        -3.9338363954        3.9452743409        0.9838699490
 H        -2.2411640838        4.0910354679        0.9303843470
 H        -3.2998324210        5.1917664247        0.0397605016
 H        -4.8128466552        0.7315290610        0.2271314606
 H        -4.9251000817        0.6385781878        1.8397225877
 H        -5.6580424289       -1.6452224988       -2.2654147194
 H        -4.0808009596       -1.2951697048       -1.5148160828
 H        -5.9167388410       -3.3787879869        2.0834028162
 H        -4.6014425282       -2.6390909992        3.0300056135
 H        -4.2788139408       -3.7997080497        1.9017896198
 H        -6.5067391171       -0.3911004105        0.3950622870
 H        -7.0822616560       -2.0643984255        0.6742911477
 H        -6.4535136676       -1.2273257560        2.0865164163
 H        -2.9483758222       -2.0715231942       -2.9366925708
 H        -3.2067224186       -3.5867146901       -2.1716581370
 H        -2.0249116329       -3.3511178035       -7.2598885095
 H        -2.8150360760       -2.2863169370       -5.9972834315
 H        -2.5985555804       -6.2394844978       -4.5851562590
 H        -4.2421644744       -6.5694008037       -4.3062055025
 H        -3.1604049766       -5.7252200809       -3.0434693192
 H        -5.0066492129       -5.7759452365       -6.1060790019
 H        -5.3123727157       -4.0597398482       -6.3705055071
 H        -3.8300611612       -4.8508929405       -7.0309776519
 H        -0.7976899980       -1.1728897189       -6.3285819432
 H         0.2439244225       -2.5479118702       -6.4834551171
 H         0.7020241151       -4.5852228778       -2.0051426991
 H         2.4866920877       -4.0792706620       -1.7317282735
 H         1.0520180845       -4.2147304091       -4.6778806249
 H         2.6399810973       -3.9318811746       -3.8230716948
 H         2.2469225390       -3.0360324182       -5.4233669470
 H         1.9792581077       -0.8395879775       -5.2436192805
 H         0.9624287093       -0.0545595326       -4.1660365770
 H         2.5623651483       -0.4878026791       -3.5766165443
 H         0.1837992116       -3.1579370281       -0.2796059958
 H         0.9280191811       -4.5582451486        0.1958059432
 H         3.2956603711       -1.4654163892        3.9696743067
 H         3.9691284419       -0.0893711586        3.0380608474
 H         0.9642870582       -3.3330963271        3.8442607301
 H         0.2907277948       -4.0419534027        2.3130090275
 H        -0.0681806704       -2.3141517003        2.9821322668
 H         4.2061054578       -2.8009713169        2.2657356452
 H         3.2851642239       -3.2921592401        3.7600890479
 H         3.2991350417       -4.3222047488        2.5118941315
 H         1.4938023610        0.2890415478        4.8461098247
 H         2.6164198522        1.4335356033        4.2989300348
 H         7.5263702687        1.5237468482        6.2255200958
 H         7.5374850417        0.2247904059        5.1368398237
 H         3.3810153480        2.1381733064        7.5778899343
 H         3.4333625205        2.5839668915        5.8550555272
 H         4.7099645071        2.9959685680        7.1139520886
 H         5.3731803043       -0.8349798306        7.3750110878
 H         6.4601709796        0.5127888472        7.6628888091
 H         5.0215647765        0.5255956045        8.3511613053
 H         7.4831324713        2.1398072034        3.3526101644
 H         8.1771550672        3.0494552006        4.6312275041
 H        11.6389575697        3.4039679774        0.8453652923
 H        11.9345616083        1.8231561353        1.3999277134
 H        10.3306520324        2.2586430309        0.7114256592
 H        11.6026740822        3.8389921189        5.2532866507
 H        10.3221684912        2.9147343775        5.8848405711
 H        10.0205758002        4.0577766974        4.6041701408
 H        12.0186099697        0.3594582190        3.4951419694
 H        12.9864298929        1.9605626903        3.3959370951
 H        12.4735718905        1.2677096315        4.9651607620
 Na       -0.4508708380       -0.7442259620        0.1513607957
