155

 C         7.2685550665       -7.3034767265        6.7453901476
 C         7.4231615424       -5.8582030130        6.2122827712
 C         7.4941104713       -4.6591390156        7.1911586486
 C         7.3342879316       -3.3210256378        6.2944233476
 C         5.9579706877       -2.8274625020        5.7609045133
 C         6.4694460479       -4.6663312423        8.3476320120
 C         8.9272860097       -4.7790645539        7.7398138027
 O         7.6013054114       -5.7216753877        4.9886975046
 O         8.3613843198       -2.6953986876        6.0113247257
 C         5.4689464968       -1.5061139667        6.2947895447
 C         4.1585171495       -1.0444121117        5.5548087514
 C         4.3596947249        0.0685853887        4.4376666999
 C         2.8721073465        0.4876331217        4.0416705334
 C         2.1462123183       -0.2240512683        2.8220326325
 O         3.0900939526       -1.5965315465        5.8235437125
 O         2.3399867227        1.4517363912        4.5868519732
 C         5.0633568378        1.2558621868        5.0231738718
 C         5.1655038084       -0.6494703072        3.2989168736
 C         0.5832026156        0.1710562285        2.8818006824
 C         0.0781267681        0.2016148309        1.3477737765
 C         0.4396934331        1.5451732318        0.5402961940
 C         1.2276651197        1.1495092112       -0.8408364186
 C         2.5767857351        1.7505715806       -1.1819808199
 C        -0.8268404303        2.2704004152        0.0326596229
 C         1.3362516486        2.4700942243        1.2952661011
 O        -0.5095148566       -0.7238807209        0.8488900249
 O         0.6673486346        0.4480533289       -1.6594525690
 C         3.4246705759        0.9545699307       -2.2367627988
 C         3.8789581530       -0.4702445968       -1.6744492304
 C         4.3900412952       -1.6021730100       -2.5151926164
 C         3.2140194995       -2.6815802703       -2.8273478769
 C         2.9858768571       -3.8546016832       -1.8390245596
 O         3.9895467851       -0.5661979468       -0.4490546555
 O         2.5459612279       -2.5646401014       -3.8150492847
 C         4.8676749955       -0.9699875796       -3.8372106541
 C         5.6594532683       -2.3003612200       -1.8583343567
 C         1.8211740932       -4.7627464734       -2.3954328600
 C         0.3663690680       -4.2259328346       -1.8090552888
 C        -1.0716958179       -5.0930055385       -1.9708773515
 C        -2.1416478467       -4.0298212666       -2.2826056858
 C        -2.8879418336       -4.0052544501       -3.6361487431
 C        -0.9884100150       -6.0767132765       -3.1328220324
 C        -1.3728733203       -5.7727803846       -0.6908605299
 O         0.3542606253       -3.0320030700       -1.4724332970
 O        -2.5472228919       -3.1382295696       -1.5059651980
 C        -3.9665528824       -2.9571839778       -3.5997830698
 C        -3.2906997227       -1.6198395487       -3.5961422246
 C        -4.1245493684       -0.2634692527       -3.7345061196
 C        -4.0644017641        0.3327070530       -2.2685204272
 C        -5.2475115992        1.1033143925       -1.6011637992
 O        -2.0787148020       -1.5070743843       -3.5012669990
 O        -3.0161052029        0.3118664279       -1.5999894301
 C        -3.4526313397        0.7432587769       -4.6951022976
 C        -5.5678193419       -0.6224997862       -4.0777598654
 C        -4.9880458446        2.4886831115       -0.9946863934
 C        -6.3263785826        3.1685535955       -0.5196520352
 C        -6.2388928906        4.5218541021        0.3368093434
 C        -5.5145659508        5.6076367466       -0.5260292736
 C        -6.3384534706        6.5474623876       -1.3721897003
 C        -7.7492610538        4.9078648554        0.6448933049
 C        -5.5569171048        4.1721470300        1.6357774716
 O        -7.4562339854        2.7969038266       -0.7372648283
 O        -4.3079860975        5.6840768023       -0.3197085542
 C        -5.6484257788        6.6623183378       -2.7859646758
 C        -5.9354948675        5.4519249310       -3.7092243671
 C        -7.0107778336        5.6674210965       -4.7972574210
 C        -7.7999638172        7.0486337774       -4.7377735317
 C        -7.4688499631        8.1391909604       -5.7015033537
 O        -5.2853911296        4.4304746275       -3.6678162428
 O        -8.4393877705        7.2826861752       -3.7631424320
 C        -6.5144949214        5.3105102861       -6.2150363056
 C        -8.1973762298        4.7134519208       -4.4023050406
 H         6.9394927564       -7.8664949676        5.8456223964
 H         8.1932342107       -7.6967835314        7.2277492595
 H         6.4377634494       -7.2919345142        7.4755932929
 H         5.9976531573       -2.7479630616        4.6395635190
 H         5.1813404735       -3.5954384172        6.0075775043
 H         5.5056792866       -4.3987718736        8.0792762971
 H         6.7130012881       -4.0296580346        9.1709208643
 H         6.2213302336       -5.6463137114        8.8085173625
 H         9.5732681934       -4.7592594910        6.8781645688
 H         9.0984265134       -3.9320743904        8.3645738947
 H         9.0278632721       -5.7539277958        8.1670355613
 H         5.5230916534       -1.6153293557        7.3727836944
 H         6.2867979402       -0.7853957371        6.1056145648
 H         2.5302475814        0.0861154037        1.8275990975
 H         2.2558612087       -1.3249242437        2.9509297638
 H         4.9606836273        1.2762395361        6.1209532152
 H         4.8052721537        2.1773927404        4.5325612730
 H         6.1421939036        1.0991524089        4.7972709248
 H         6.0492837732       -1.1970763724        3.6836198724
 H         4.4386819670       -1.3275336391        2.8667113146
 H         5.5052087999        0.1289616531        2.5896574327
 H         0.6493889330        1.1575546961        3.3589736614
 H         0.0858073118       -0.6374804743        3.3638381892
 H         2.5107458041        2.8126252356       -1.5104341890
 H         3.1890865680        1.8567747240       -0.2897031695
 H        -1.1862089133        1.6079648968       -0.6952351757
 H        -0.5787833855        3.1729859125       -0.4070183082
 H        -1.6104421688        2.2734794771        0.7414232924
 H         0.9661583817        2.7009251022        2.2607981863
 H         2.2934721915        2.1014815878        1.5160333519
 H         1.5284754027        3.3074208950        0.7246011659
 H         2.8714520227        0.7905144514       -3.2636397126
 H         4.3643853708        1.5707957236       -2.3897771464
 H         3.8652103090       -4.5783191674       -1.8891099366
 H         2.7925629558       -3.4827423184       -0.7960071032
 H         5.5437974903       -1.6846355355       -4.3424214197
 H         5.4774201918       -0.1302773349       -3.5872347534
 H         4.1147289677       -0.7563983429       -4.5715293558
 H         6.3346899353       -1.3938095288       -1.6297594181
 H         5.4544161031       -2.8498306811       -0.9046855732
 H         6.0820791191       -2.9142675696       -2.6525485255
 H         2.0174682623       -5.8326541677       -2.0730461069
 H         1.7803043940       -4.6334227990       -3.4842666026
 H        -2.0946271349       -3.7852732674       -4.3541229231
 H        -3.3428112073       -4.9438952033       -4.0085520429
 H        -0.6758864238       -5.6622792337       -4.1112373923
 H        -1.9749911885       -6.4290998591       -3.3604512884
 H        -0.3104764781       -6.9083745924       -2.8360253933
 H        -2.4188195711       -6.1031553264       -0.6226099604
 H        -0.6890942489       -6.6088182111       -0.6457624170
 H        -1.1509961564       -5.1340769490        0.1593586051
 H        -4.7207242878       -3.0610804105       -4.4467289891
 H        -4.5673684242       -2.9371765351       -2.7003857745
 H        -6.0950258842        1.2526603347       -2.3367067819
 H        -5.6227400170        0.3330966781       -0.8866986855
 H        -3.1281122232        1.6083060683       -4.0545057868
 H        -4.2612664300        0.9514620425       -5.3799256192
 H        -2.5580516396        0.3486152006       -5.2257781765
 H        -6.1879672184        0.3214719926       -4.1087326022
 H        -5.5939714768       -0.9980883461       -5.0263723112
 H        -5.9315980636       -1.2432493498       -3.3081654614
 H        -4.5859798987        3.1657467273       -1.8387246106
 H        -4.3065169539        2.5304345123       -0.1598345572
 H        -7.3100129842        6.0946655019       -1.5099085949
 H        -6.4721733783        7.5140969864       -0.8418538151
 H        -8.3341240137        4.1316029415        1.2195340643
 H        -8.3453706508        4.9326183293       -0.2356815626
 H        -7.8472001589        5.8106595064        1.2358248249
 H        -4.5030827012        4.3178476892        1.4837506596
 H        -6.0250869805        4.5529665579        2.4995911688
 H        -5.5202013843        3.0659687230        1.9905964678
 H        -5.9630771879        7.6218636559       -3.3134662536
 H        -4.5302039382        6.6593607003       -2.7459553384
 H        -7.9628211334        8.0145890965       -6.6579814164
 H        -7.6796720490        9.1675202117       -5.3185664620
 H        -6.4258941857        8.1729201296       -6.0403950583
 H        -7.3937062503        5.4762738614       -6.8964490149
 H        -6.2713454312        4.2871640138       -6.1858441206
 H        -5.6296825343        5.7874857824       -6.5966708070
 H        -8.9580192951        4.8020848857       -5.1671578299
 H        -7.9220843538        3.6950839802       -4.4611630492
 H        -8.7406669448        4.9230845765       -3.4440101806
 Na       -1.1215172355       -1.0453193668       -1.4061429979
