155

 C         8.1676457846       -7.0227548156        6.9102075051
 C         7.7538445864       -5.7682807417        6.0988863331
 C         8.0623361283       -4.4275478277        6.8547019715
 C         7.3316099812       -3.1564487182        6.2689717914
 C         5.8161032742       -3.1929993358        6.0441961346
 C         7.7331808424       -4.3651524568        8.3497698569
 C         9.5708722255       -4.1816936572        6.6440528927
 O         7.1108992627       -5.9595004094        5.0885946809
 O         7.9723927492       -2.1650256161        6.1310021143
 C         5.3066190733       -1.6960068065        5.6329434878
 C         4.5156857575       -1.6606484165        4.2712123393
 C         4.7260863323       -0.3172644228        3.3574122390
 C         3.3998487682        0.5156373077        3.1474546559
 C         2.3677840137       -0.3055834902        2.4429311122
 O         3.6934815828       -2.4990735953        4.0571141445
 O         3.1650800896        1.6010416841        3.6708762183
 C         5.6833454398        0.6466177664        4.1328401253
 C         5.3119127792       -0.6220507297        1.9800686031
 C         1.0132160097        0.3359719618        2.5141354862
 C         0.2472470208        0.6066697162        1.1966062899
 C         0.7243947646        1.7552853096        0.2462652608
 C         1.2159070709        0.9114689647       -1.0302623002
 C         2.6452415274        0.6052770016       -1.4266637762
 C        -0.6217611892        2.4786021876       -0.1204378058
 C         1.7638653510        2.6069799144        0.8730487908
 O        -0.6909563321       -0.1077945030        0.8958165238
 O         0.3799724841        0.4220057523       -1.7590216040
 C         2.8266477622       -0.3981873570       -2.5073602089
 C         3.7746378949       -1.4911350140       -2.1245975352
 C         4.1465035637       -2.5612266621       -3.2244388204
 C         3.0045972734       -3.6185810383       -3.0577645954
 C         2.8542667304       -4.3874642918       -1.8013942897
 O         4.3261411983       -1.5283309620       -1.0220284822
 O         2.1505139854       -3.6503035405       -3.9210367560
 C         4.3080477259       -1.8458020997       -4.6090840811
 C         5.4456530493       -3.3329013751       -2.9157164226
 C         1.4911262282       -5.0311355355       -1.6378509870
 C         0.2219385705       -4.1375456839       -1.4212539869
 C        -1.1914587250       -4.8867373762       -1.2810537736
 C        -2.2662744513       -3.7582372638       -1.5022578053
 C        -3.0371255038       -3.6271266983       -2.8395854748
 C        -1.3364055835       -5.9658917753       -2.3548049555
 C        -1.3237510687       -5.3595286414        0.1323695856
 O         0.3061760897       -2.9882781688       -1.6211100025
 O        -2.5016239198       -3.0833861192       -0.5318092861
 C        -4.1979839143       -2.5638522421       -2.8268765537
 C        -3.5130437382       -1.0886159321       -3.1973927776
 C        -4.3947256456        0.2122913024       -3.0802675624
 C        -4.0628530482        1.0240075933       -1.7182853704
 C        -4.9300184314        2.2507245853       -1.4763844436
 O        -2.4421433696       -0.9773455182       -3.7659251216
 O        -3.1861757853        0.7692512373       -0.9104729844
 C        -4.1255042088        1.1236970879       -4.3871713107
 C        -5.8750404650       -0.2621277139       -2.8261585726
 C        -5.9052289226        2.1221624420       -0.2527291781
 C        -6.7360986356        3.4031091192       -0.0234359117
 C        -6.2569927582        4.7667334019        0.7393713571
 C        -5.3581875477        5.6031625383       -0.2240979391
 C        -5.8205721734        6.8597354799       -1.0352789966
 C        -7.5320758480        5.6360599135        0.8534571342
 C        -5.6328910682        4.5265715279        2.1173318599
 O        -7.7586646003        3.5250971134       -0.6807474884
 O        -4.2063754671        5.2621144443       -0.4350614740
 C        -5.3219022385        6.7851347663       -2.5103677117
 C        -5.9136842150        5.6045561665       -3.4380298445
 C        -7.5206291322        5.7718242936       -3.9172942067
 C        -7.5208462336        7.1994070876       -4.8161117068
 C        -8.3094399309        7.2244814645       -6.0496199438
 O        -5.2159475648        4.6888296249       -3.7821911123
 O        -6.7127319072        8.1052495476       -4.5491931525
 C        -7.8294676735        4.5244778099       -4.9116214610
 C        -8.5801474714        5.8626052511       -2.8547449990
 H         7.9000275763       -7.8846274687        6.2429505932
 H         9.2577037947       -7.0037947162        7.0236484209
 H         7.7976086590       -6.9703902923        7.9346475574
 H         5.4803342732       -3.8779635144        5.2525397054
 H         5.2798105847       -3.6814378847        6.9100215390
 H         6.6954594434       -4.1774741659        8.6046018231
 H         8.2506177374       -3.5351231495        8.8631363449
 H         7.9935934531       -5.2325487962        9.0597420810
 H         9.8248063248       -4.2229751134        5.5395501954
 H         9.8826474592       -3.2338251485        7.1406965937
 H        10.1449979862       -4.8727604692        7.1851798390
 H         4.6794401651       -1.2276964636        6.3907398322
 H         6.2597550289       -1.1549988542        5.5020897070
 H         2.6168012880       -0.4116973587        1.3776536068
 H         2.4733647648       -1.3891474601        2.8071054736
 H         5.2822123085        0.8370806805        5.0938444048
 H         5.7555161355        1.5096559645        3.5176423150
 H         6.6574505553        0.2304911742        4.0143090951
 H         6.1556416497       -1.2480033646        2.1207586086
 H         4.5908837765       -1.2090312261        1.5085057121
 H         5.5330270232        0.3114916086        1.5183996906
 H         1.0851646487        1.2674535961        3.0864644308
 H         0.3073234688       -0.2675281851        3.1242922953
 H         3.0562912287        1.5777464531       -1.6110217841
 H         3.1762599860        0.1958481904       -0.4999720612
 H        -1.3982366758        1.7102799446       -0.1407790055
 H        -0.7152581883        2.8199837781       -1.1548618655
 H        -0.8998180652        3.1342451671        0.7337149762
 H         1.4376033234        2.9558480497        1.8675691405
 H         2.7246389955        2.0860837840        1.0812520390
 H         2.0773062120        3.2791905105        0.0927513653
 H         1.7146283724       -0.6919922110       -2.7986945206
 H         3.0535544390        0.1364786807       -3.4069598281
 H         3.6186688040       -5.1752057325       -1.5505971279
 H         2.9984181680       -3.7512633542       -0.8786049044
 H         4.8809077630       -2.4801226563       -5.2934568632
 H         4.8095281343       -0.8771408961       -4.5856211636
 H         3.3078156383       -1.7741702244       -5.0771138682
 H         6.2939657448       -2.6148798450       -2.8182784924
 H         5.3101994408       -3.7486756177       -1.9629331144
 H         5.5531697798       -4.0809698092       -3.6086326290
 H         1.5497993037       -5.8041113337       -0.9050541867
 H         1.2565283658       -5.6781438818       -2.5615751045
 H        -2.2850073418       -3.2218477021       -3.5278090809
 H        -3.4162373755       -4.6150432865       -3.0916384790
 H        -1.0414341285       -5.4819918413       -3.3076471082
 H        -2.3457773100       -6.2700653710       -2.5409340655
 H        -0.6109558317       -6.7921324667       -2.1302210570
 H        -2.2657602447       -4.9901521156        0.5028490665
 H        -1.2986251747       -6.4758657703        0.2415239477
 H        -0.4983775310       -4.9446131853        0.7242673744
 H        -4.8502200992       -2.8834585989       -3.6507289831
 H        -4.7482615628       -2.5780382513       -1.8907160981
 H        -4.2061590821        3.1624751112       -1.3096836581
 H        -5.5742397495        2.4750771349       -2.2270197798
 H        -3.6423896607        0.4092703007       -5.1024946487
 H        -3.4858084684        1.9481540085       -4.1866549645
 H        -5.0146021109        1.5856602036       -4.7541675097
 H        -6.6508929589        0.4918548919       -2.8383300925
 H        -6.2917310992       -1.0025549493       -3.5004096249
 H        -5.9641282420       -0.6936406211       -1.8931269629
 H        -5.3773451083        1.7632326997        0.6473240786
 H        -6.6534910013        1.3228596682       -0.3891137607
 H        -6.8918123092        7.1212564287       -1.0860887247
 H        -5.3879248543        7.7543740134       -0.6272113500
 H        -8.3129945236        5.1993019514        1.5223154628
 H        -8.0522319269        5.7493103339       -0.0297475026
 H        -7.2644581594        6.5854533446        1.2900969974
 H        -4.5563758822        4.1571955327        2.0170640545
 H        -5.7383203300        5.4375605673        2.7843736588
 H        -6.2949035310        3.7028610956        2.4379461483
 H        -5.5526431760        7.7962541987       -2.9364539020
 H        -4.1690408938        6.7702474460       -2.5584633522
 H        -9.1766433655        6.6476459390       -6.3415746685
 H        -8.5616555321        8.3152433763       -6.2999985349
 H        -7.5657590552        6.9745048027       -6.8099116751
 H        -8.9272398253        4.2709950043       -5.0752386394
 H        -7.2963652914        3.6372795536       -4.7048495327
 H        -7.4872765766        4.7177603021       -5.9663709597
 H        -9.5867601995        5.7418573778       -3.2096536000
 H        -8.4773487567        5.1327590965       -2.0498397509
 H        -8.4577953171        6.9105987105       -2.4181996184
 Na       -1.5084834864       -0.9351582520       -1.3722746284
