155

 C         8.3657429494       -6.8374655342        6.5024019134
 C         7.5298727276       -5.5593233100        6.0075997038
 C         8.0585977997       -4.2147946984        6.5924898412
 C         7.4562910926       -2.9615998790        6.0319367452
 C         5.9186718149       -2.9008282822        6.0306025961
 C         7.5486378997       -4.2103557708        8.0498485291
 C         9.6027879968       -4.0451193337        6.5017148948
 O         6.5631580299       -5.6386602076        5.2934021683
 O         8.0631930748       -1.9318103805        5.7318665189
 C         5.3680844037       -1.6770317497        5.3452612206
 C         5.0239517801       -1.7448115625        3.8451607698
 C         5.1513885994       -0.4518353044        3.0698576616
 C         3.7222414875        0.2145456783        3.1997912115
 C         2.5506001988       -0.6390872708        2.7120740735
 O         4.6259800507       -2.8311211708        3.3466233077
 O         3.5456285142        1.2509545927        3.7410151418
 C         6.1964486132        0.5069708203        3.8094233122
 C         5.4373995845       -0.7527839353        1.5463963223
 C         1.3479401450        0.2853702783        2.6002906339
 C         0.7057863564        0.3474099031        1.1381635557
 C         0.8385815453        1.5460258413        0.1021292018
 C         1.0970418199        0.8488962037       -1.3213722296
 C         2.5912082313        0.6493606920       -1.7262174458
 C        -0.5220906061        2.1978067940        0.0743160364
 C         1.8746569297        2.6727467403        0.3384216995
 O        -0.0353255785       -0.5191221526        0.8342990312
 O         0.2252864153        0.6130738746       -2.1037990008
 C         2.7591542530       -0.3858550010       -2.8365098225
 C         3.7246152299       -1.5897647318       -2.4691349613
 C         3.9013989802       -2.8380066529       -3.3987969344
 C         2.6118501407       -3.7757232797       -3.2232231962
 C         2.4790018251       -4.4152683354       -1.8506239985
 O         4.3517584076       -1.6031111337       -1.3930059506
 O         1.8719563554       -3.9706465836       -4.1505060842
 C         4.0615204485       -2.5335404601       -4.8737016063
 C         5.1382292288       -3.6449276740       -2.8145712992
 C         1.1069531567       -4.9797167047       -1.4406551074
 C         0.0028254806       -4.0125087332       -1.2765392430
 C        -1.4704385996       -4.5236674622       -0.8793235680
 C        -2.5619269715       -3.4731265537       -1.2819834415
 C        -3.2908557195       -3.5614138860       -2.7511174898
 C        -1.7939715261       -5.8342589922       -1.6602051724
 C        -1.4882690898       -4.8272920742        0.6436872287
 O         0.2419667998       -2.8276045989       -1.3830747170
 O        -2.8883167862       -2.6082280387       -0.5186400885
 C        -4.4466184063       -2.4636331946       -2.8130098033
 C        -3.7927184682       -1.0749236570       -3.0218234254
 C        -4.6833193890        0.2050982996       -2.8739990949
 C        -4.2297733986        0.9182234778       -1.4135131750
 C        -4.9519187388        2.2884388351       -1.0647085530
 O        -2.5795217546       -0.9348168028       -3.2028367482
 O        -3.2106262848        0.5764959832       -0.8223689655
 C        -4.1516821768        1.2321339582       -3.9928200769
 C        -6.1514817449       -0.0334400006       -3.0457774764
 C        -6.2992686758        2.2565255581       -0.2204769226
 C        -6.8185041265        3.7263642880       -0.1598510851
 C        -5.9791054866        4.7175121238        0.8598695348
 C        -4.9913271983        5.5262243484       -0.0701580109
 C        -5.6363418621        6.6706426719       -0.8860579232
 C        -7.0317313948        5.6766028955        1.5150718962
 C        -5.1516942363        4.0429383272        1.9647369578
 O        -7.7272274759        4.2009502855       -0.8394502095
 O        -3.8841690921        5.1064102698       -0.1884190805
 C        -5.4095536097        6.7215512054       -2.5028021684
 C        -6.2339988788        5.6332091247       -3.1517267916
 C        -7.5500411052        6.0660459880       -3.7068811335
 C        -7.3610935096        6.8974356966       -5.0653089735
 C        -8.3117079486        6.7410478123       -6.2016658436
 O        -5.6944648649        4.5649325398       -3.2011931226
 O        -6.4757833377        7.7226352214       -5.1243118109
 C        -8.2173826889        4.7104732400       -4.0537119889
 C        -8.4205225527        6.8174779237       -2.7079840640
 H         7.8907011016       -7.7835825325        6.2122244664
 H         9.4454808587       -6.7222096980        6.1687686701
 H         8.3423907045       -6.7862289538        7.6248326645
 H         5.5432099897       -3.7855730629        5.4093505228
 H         5.5990431778       -3.0888646397        7.0681848663
 H         6.4553241386       -4.3805735225        8.0571573722
 H         7.7383352000       -3.3775919502        8.6635350491
 H         7.8951385821       -5.1127728434        8.6602801024
 H         9.9620333994       -4.2091976697        5.5351154515
 H         9.8998187116       -3.0752001618        6.6964539090
 H        10.1003182419       -4.8284713994        7.0914714553
 H         4.3967463379       -1.3338052562        5.7894672382
 H         6.1026783461       -0.9190203237        5.5900076459
 H         2.8554805449       -0.9467988927        1.6667408878
 H         2.4712247160       -1.4513293650        3.3926257303
 H         5.9178798468        0.8550349493        4.7908145023
 H         6.2413994934        1.3561454935        3.1215962562
 H         7.0544990259       -0.0683365309        3.8698641918
 H         6.4453821757       -1.1072205710        1.5111589483
 H         4.7794886539       -1.4637291656        1.1914868211
 H         5.3864505478        0.1524054538        0.9760761653
 H         1.8204112537        1.2435014094        2.7658424376
 H         0.5371181884        0.0274985673        3.2835332152
 H         3.1634933101        1.6194393854       -1.8385624868
 H         3.2205739762        0.2858360307       -0.9211558272
 H        -1.3205267312        1.5490357495       -0.2699663945
 H        -0.3944641085        3.1148349803       -0.5381788960
 H        -0.8187773294        2.6048340498        0.9934071152
 H         1.6588827087        3.2522166538        1.1528949346
 H         2.8115724082        2.1702486260        0.3481970668
 H         1.6748714862        3.3441364533       -0.4922776701
 H         1.8743296338       -0.7143161020       -3.2082328464
 H         3.3065171055        0.1303815902       -3.6870589667
 H         3.2269820651       -5.2293858151       -1.6698092058
 H         2.7425912937       -3.6390712411       -1.0686679860
 H         4.5252593964       -3.4157684616       -5.2811373485
 H         4.6944291467       -1.6258221973       -5.0563734227
 H         3.1113253052       -2.4157393044       -5.4410637766
 H         6.0290809573       -3.0741236434       -3.1456612196
 H         5.1641414648       -3.8288288107       -1.7248416872
 H         5.2837925515       -4.5906946489       -3.3962006519
 H         1.1679873986       -5.5563233298       -0.4310395663
 H         0.7740869508       -5.7377073968       -2.1599206939
 H        -2.5457166843       -3.3214227534       -3.5422264356
 H        -3.7088402252       -4.5777510411       -2.7844515128
 H        -1.5004481615       -5.6538215473       -2.7274923527
 H        -2.8063419046       -6.1579264102       -1.6396697985
 H        -1.1569676102       -6.7077479696       -1.2784097143
 H        -0.7410781698       -4.2187407800        1.1066482492
 H        -2.4868967995       -4.7585081182        1.0716236128
 H        -1.2016762463       -5.8639253299        0.8597224190
 H        -5.2100612876       -2.7734134087       -3.6028119827
 H        -5.0667696716       -2.5005918853       -1.8357476796
 H        -4.2603657278        2.9450265754       -0.5540136434
 H        -5.2527911510        2.7165230758       -2.0784266216
 H        -4.2991972727        0.7230190142       -4.9379445077
 H        -3.0649408878        1.4423728176       -3.8765339873
 H        -4.6785840852        2.1551506404       -4.1319581175
 H        -6.6572290141        0.5369782500       -3.8745631031
 H        -6.3696922570       -1.0180519726       -3.1676634482
 H        -6.8570089085        0.2150419921       -2.2269346493
 H        -6.0603566688        1.8410913130        0.7380302516
 H        -7.0700218069        1.6466438557       -0.7104451464
 H        -6.7249448148        6.5657038199       -0.7161203937
 H        -5.3867845418        7.7099429784       -0.4908415849
 H        -7.5375476826        5.0866778438        2.2383578646
 H        -7.7757441447        6.0158025664        0.8068512446
 H        -6.6434338534        6.4631784079        2.1765415405
 H        -4.5299349115        3.2909661215        1.5833396515
 H        -4.9201296800        4.8447469346        2.5667292421
 H        -5.9693038376        3.5864747150        2.6633541733
 H        -5.7690996042        7.6703796160       -2.9212946248
 H        -4.3654378111        6.4932099399       -2.7019557034
 H        -8.6306893114        5.8239456640       -6.7512236247
 H        -9.2237584861        7.2738827603       -5.8984629246
 H        -7.9335550027        7.3764575229       -7.0294846862
 H        -9.2895177524        4.6100093363       -4.1662407798
 H        -7.9435259568        3.9879870704       -3.2471602359
 H        -7.8812024994        4.2843816853       -5.0100232127
 H        -9.2143915884        7.4250511496       -3.1773927835
 H        -8.8464523071        6.0782438894       -2.0056686642
 H        -7.8684194362        7.5487566708       -2.2016452569
 Na       -1.2529321374       -0.9101730131       -1.0972188748
