155

 C         8.6197271011       -6.5610866566        5.7553008460
 C         7.5350074191       -5.4991608420        6.0017357676
 C         7.9923149020       -4.0873253614        6.5398918129
 C         7.3253497708       -2.9455119960        5.7627117121
 C         5.8324966170       -2.5883269314        6.1568388519
 C         7.5011055701       -4.2681922503        7.9970741259
 C         9.4550460104       -3.8748375433        6.5074385693
 O         6.3841212389       -5.8157334900        5.7160656529
 O         7.9720458846       -2.2718421799        4.9002398913
 C         5.4697373336       -1.4224886626        5.1788504377
 C         5.7265457427       -1.7067378776        3.7363079758
 C         5.6462324829       -0.4372477020        2.7710179407
 C         4.2040375087        0.2243067015        2.8419167010
 C         2.9778309813       -0.3729996337        2.0876531177
 O         5.8775424371       -2.8771497948        3.3568643829
 O         4.0965897963        1.1932816103        3.5468545626
 C         6.8258167316        0.5847481411        3.2893422807
 C         5.9295504840       -0.8868622640        1.3448898721
 C         1.6067166272        0.3728205901        2.2603759593
 C         0.7286989528        0.3847865170        1.0982835636
 C         1.0499820473        1.3695165615       -0.0155171313
 C         1.1795227267        0.6459273953       -1.3779389572
 C         2.7287188179        0.6792054218       -1.9870027132
 C        -0.1442043468        2.4157149924       -0.0344846686
 C         2.3172879020        2.2799440053        0.3611154628
 O        -0.1873333839       -0.4175784318        1.0128838572
 O         0.3035619275        0.1277490461       -2.0116685020
 C         2.8477254102       -0.3971416269       -3.1491631449
 C         3.5096333578       -1.6786647969       -2.6134461484
 C         3.5411770367       -2.9438453525       -3.4346441466
 C         2.1193412184       -3.7567967941       -3.1486716368
 C         1.9093529290       -4.2121400255       -1.6445779387
 O         4.0532788122       -1.7157017029       -1.5067732532
 O         1.2919564887       -3.9771748802       -3.9972112156
 C         3.5352088572       -2.6503508860       -4.9724180861
 C         4.8233838561       -3.7297330084       -3.0998633780
 C         0.5191195700       -4.8690833141       -1.3910145868
 C        -0.5843345753       -3.8032695920       -1.3460750958
 C        -1.9316511065       -4.4447861321       -0.6612522700
 C        -2.9908290486       -3.3830411528       -0.9947634324
 C        -3.7645502091       -3.6050331436       -2.3278679745
 C        -2.3225368677       -5.8792958165       -1.0393822457
 C        -1.6414841814       -4.2506573212        0.8548061357
 O        -0.4372532301       -2.6524545890       -1.7397164093
 O        -3.1714861795       -2.4465078948       -0.2120335335
 C        -4.6322146974       -2.3976438891       -2.7282114665
 C        -3.8780098120       -1.1326606537       -3.0074636603
 C        -4.5864578581        0.2420008597       -3.1046257922
 C        -4.4337953834        0.8922228965       -1.7355538929
 C        -5.1182386017        2.2050843557       -1.4748442947
 O        -2.6784567646       -1.1874200011       -2.9444471916
 O        -3.8754601277        0.3805646020       -0.7949705626
 C        -3.7316686796        1.1005470365       -4.0780463152
 C        -6.0775126766        0.2209959727       -3.3872134797
 C        -5.8701687197        2.2983397400       -0.1065815864
 C        -6.4522662504        3.6653090401        0.3413698997
 C        -5.6448914435        4.6594783414        1.1044673371
 C        -4.8700458407        5.5473141112       -0.0068722465
 C        -5.6757992297        6.6478179736       -0.6051342674
 C        -6.4543612168        5.6034273021        2.1298961161
 C        -4.5123212012        4.0228284967        2.0057541084
 O        -7.5608851385        3.9558047810       -0.0299491304
 O        -3.7535038499        5.3416213359       -0.3761013126
 C        -5.3760895676        6.7411452274       -2.1599160649
 C        -6.3432812356        5.7545354345       -2.8130931956
 C        -7.6765005269        6.1826798669       -3.5849314270
 C        -7.1369797364        6.4485656807       -5.0540967576
 C        -8.0602456209        6.4196023485       -6.2146793813
 O        -6.2179505899        4.5511215286       -2.6241052063
 O        -5.9805793627        6.6346467364       -5.2916099098
 C        -8.7501699440        4.9842006367       -3.6183778933
 C        -8.4064487805        7.4683964537       -3.0364935766
 H         8.0924958784       -7.4641340862        5.4094898808
 H         9.2469799415       -6.1693150608        4.9279907623
 H         9.0948496886       -6.8889359645        6.7215532501
 H         5.2817160666       -3.4887643067        5.9745100666
 H         5.7153154816       -2.2550103386        7.2111726741
 H         6.4403435885       -4.5059128584        8.1435680953
 H         7.6113899373       -3.3466476030        8.6339049556
 H         8.1040661487       -4.9780104258        8.4177320267
 H         9.8253056953       -3.8348502345        5.5425834558
 H         9.7239625175       -3.0051591899        7.0397470007
 H        10.1029613244       -4.5970597987        7.0773911311
 H         4.4043046856       -1.2347668897        5.3268916686
 H         5.8595731282       -0.4339327888        5.5289487467
 H         3.2468764735       -0.4259790360        1.0812794709
 H         2.8438926059       -1.4408698510        2.3452358287
 H         6.6623948536        0.6518114759        4.3555329153
 H         6.7912241474        1.5348287712        2.8211524284
 H         7.7755330948        0.0483680834        3.1590990390
 H         6.9770474132       -1.0185178989        1.1358529080
 H         5.3900507979       -1.7347323504        0.9194390891
 H         5.6127941533       -0.0580204639        0.7507496236
 H         1.7759173226        1.4060269809        2.5977446947
 H         1.0821278962       -0.0812404980        3.0822212630
 H         2.8161753667        1.6631906257       -2.4064976165
 H         3.6203698500        0.6012265660       -1.3010978231
 H        -1.0528731515        2.0787925452       -0.5031685057
 H         0.1778788238        3.2593868030       -0.6164387169
 H        -0.4643427451        2.7963183720        0.9043051556
 H         1.9703480758        2.7543807102        1.2882978560
 H         3.2350962854        1.7302159290        0.4785215044
 H         2.4816722021        2.9514574189       -0.4491188957
 H         1.8270218871       -0.5409021044       -3.5968419085
 H         3.4877397112       -0.0046650802       -3.9088134310
 H         2.6662736162       -4.9250195866       -1.3710005164
 H         1.9735442725       -3.3881768467       -0.9707739727
 H         3.7995562457       -3.5794141880       -5.5614527310
 H         4.3416033390       -1.9436870039       -5.1859473207
 H         2.6093367796       -2.1734196660       -5.2815328189
 H         5.7722110903       -3.2913380235       -3.3266804545
 H         4.9255278181       -3.9044560255       -1.9681228428
 H         4.7266517818       -4.7967713315       -3.5869260047
 H         0.4698562539       -5.2878774228       -0.4017916262
 H         0.3641719927       -5.6556883366       -2.1904251396
 H        -3.0024241651       -3.7568028323       -3.1140306014
 H        -4.2851548833       -4.5875415095       -2.2549569917
 H        -2.3912111146       -6.1352222537       -2.0949026051
 H        -3.2755811900       -6.2007568027       -0.4884149752
 H        -1.5966639875       -6.5599690517       -0.7349686093
 H        -1.2338609261       -3.2298478314        1.0512534439
 H        -2.5520466340       -4.2786552948        1.4040760748
 H        -0.9301395654       -4.9645899617        1.2232979239
 H        -5.2503397889       -2.5769380748       -3.6514571954
 H        -5.3903128788       -2.3462709177       -1.9557204664
 H        -4.3221941176        2.8859289128       -1.3235991352
 H        -5.6955778537        2.5816517892       -2.4499035351
 H        -3.9361134911        1.0972622020       -5.1231508902
 H        -2.6683892720        0.8175705956       -4.1275232177
 H        -3.8438697648        2.1487620359       -3.7328579150
 H        -6.3512003775       -0.7775301481       -3.8968806937
 H        -6.6351061910        0.0879193166       -2.4899468489
 H        -6.5532336345        1.1441078964       -3.9015691066
 H        -5.1907250440        1.8673653871        0.6441828636
 H        -6.7153182797        1.6580516468       -0.2348132442
 H        -6.7814498090        6.6086140603       -0.5020232159
 H        -5.2385333804        7.5586524255       -0.1118031193
 H        -6.6850849310        4.9219149142        2.9101211430
 H        -7.4613127651        5.9816369145        1.7474380735
 H        -5.9249586406        6.5253841767        2.3338172684
 H        -4.0287136273        3.2949787202        1.4073979809
 H        -3.6651781107        4.6943380332        2.0405371352
 H        -5.0371814484        3.6179718010        2.8446323838
 H        -5.6018503603        7.7517084971       -2.5095325053
 H        -4.3520857802        6.5424403205       -2.2401828329
 H        -7.6679015446        5.5023412852       -6.7262493288
 H        -9.1003493825        6.2752880110       -6.2130390284
 H        -7.8975408061        7.2230021841       -6.9666717370
 H        -9.7329397648        5.3581788507       -3.8898017297
 H        -8.9919228038        4.5885285009       -2.5870114593
 H        -8.5260253526        4.0923814585       -4.1743325043
 H        -9.4628627385        7.2127781309       -3.1410668705
 H        -8.2239901820        7.7579233912       -2.0154552007
 H        -8.1300306441        8.3063210043       -3.6639460128
 Na       -1.5030131194       -0.7114434362       -0.7841869843
