155

 C         8.6163253541       -6.4968512811        5.4439156151
 C         7.6222843179       -5.5474479641        5.9369318334
 C         7.9778944347       -4.1129651032        6.5567685382
 C         7.4681542136       -2.8554200437        5.7024509346
 C         5.9119027747       -2.5313375565        5.9923267112
 C         7.3988678096       -4.0401303243        7.9552146161
 C         9.5337333123       -4.0278895883        6.5982008307
 O         6.4431404506       -5.8470649132        5.8895758333
 O         8.1424256375       -2.2646716007        4.9664655079
 C         5.3134045837       -1.4702317483        5.0928438323
 C         5.6707007796       -1.6563091055        3.6594865435
 C         5.7327720401       -0.3898847408        2.6426357681
 C         4.3182601347        0.1062657093        2.6331939574
 C         3.1971394154       -0.5469123015        1.7821734676
 O         5.7606763307       -2.7344791499        3.1785950171
 O         4.0605835151        1.1143551060        3.3458710026
 C         6.6861967538        0.6716810241        3.0672966822
 C         6.2855392442       -0.9748783485        1.2951705723
 C         1.8633879036        0.0351523177        2.2303150187
 C         0.9265972824        0.4320926200        1.1267896098
 C         1.1841366873        1.5156805427        0.0705403019
 C         1.3966810170        0.6646860442       -1.4114814624
 C         2.7412795324        0.7133697875       -2.1878144604
 C        -0.0743897586        2.3640028053       -0.0607650284
 C         2.3866187570        2.3972023019        0.2539238384
 O        -0.2382230047        0.0206270586        1.2359355925
 O         0.3275437602        0.1925472151       -1.8702429136
 C         2.9709411475       -0.3259992509       -3.2400805113
 C         3.3620061895       -1.6902332651       -2.6836227402
 C         3.4029324449       -2.9470417864       -3.5095485338
 C         1.9671277485       -3.6459497437       -3.1397447799
 C         1.8589032672       -4.1606450421       -1.7135196942
 O         3.6246696781       -1.8065921384       -1.5227310302
 O         1.2099186117       -3.9212751267       -4.0364552166
 C         3.5080417672       -2.6974177696       -5.0065054340
 C         4.4602666853       -4.0347382344       -3.1584594735
 C         0.5797660411       -4.8603670708       -1.3444516242
 C        -0.6047230611       -3.8411852183       -1.1994026064
 C        -1.9662844788       -4.3106952506       -0.4581430648
 C        -3.2296695832       -3.2399111136       -0.8076082698
 C        -4.0411993735       -3.5452989844       -2.0897715233
 C        -2.3236761283       -5.7037842068       -0.9424103259
 C        -1.7255696995       -4.3854536316        1.0095672117
 O        -0.6124359249       -2.7137995066       -1.6416061638
 O        -3.5712464638       -2.3331241068       -0.0804295263
 C        -4.7379859382       -2.3747326208       -2.7730982473
 C        -3.8795965880       -1.1511123377       -2.9333152832
 C        -4.5116483644        0.2583604319       -3.0880658477
 C        -4.3504289125        0.9349892608       -1.6595711409
 C        -5.1461209913        2.1810099531       -1.3175529035
 O        -2.6671603686       -1.2541016938       -2.8218029988
 O        -3.6274706565        0.5327583810       -0.7675341738
 C        -3.7852388497        1.0889023545       -4.1401516506
 C        -6.0172804225        0.2015033392       -3.6534984911
 C        -5.7597324663        2.1286773182        0.1421792113
 C        -6.3379972443        3.5141901817        0.5307029947
 C        -5.4524906321        4.5054203919        1.1674796101
 C        -4.8387751253        5.4825791323       -0.0208164326
 C        -5.5608620529        6.7710496813       -0.4888014442
 C        -6.2962694560        5.4146047688        2.1131814820
 C        -4.2216384942        3.9237625873        1.8825428974
 O        -7.5238956443        3.7276506789        0.3852570054
 O        -3.6752363323        5.3282111889       -0.3825832585
 C        -5.5932682006        6.9702979326       -2.0290128407
 C        -6.5036758531        5.8129429970       -2.7741083312
 C        -7.6807353558        6.2783980498       -3.6512447526
 C        -7.1192999166        6.4110344295       -5.1612657537
 C        -8.1807773546        6.3426727160       -6.1754680415
 O        -6.3903392366        4.6508555213       -2.4958993917
 O        -5.9452700704        6.4342787330       -5.5194977589
 C        -8.6838927267        5.0880470862       -3.6077652589
 C        -8.1764972634        7.6630044223       -3.2783753030
 H         8.0474460266       -7.2310793465        4.8884513028
 H         9.2567134517       -5.9907746756        4.7756757668
 H         9.0455444738       -6.9984965952        6.2513025215
 H         5.3968994894       -3.5124122170        5.9185144800
 H         5.9310160642       -2.1262779249        6.9907790136
 H         6.3258744968       -4.2179294772        7.9431637002
 H         7.5568389555       -3.0551468989        8.4385999355
 H         7.8190870552       -4.8641250912        8.6365257179
 H        10.0778574569       -4.2101077757        5.6106068623
 H         9.9255020951       -3.0868157828        7.0597221465
 H         9.9928562315       -4.6606895783        7.2856150975
 H         4.2142282451       -1.4871521679        5.2026646261
 H         5.4975540832       -0.4853159117        5.4413312518
 H         3.4262308872       -0.4584645303        0.6698496097
 H         3.2259888020       -1.6137135331        1.8870613546
 H         6.3877097228        1.1426728293        4.0025022196
 H         6.7262336818        1.3890658649        2.2036924542
 H         7.6854488759        0.2050984483        3.1347170381
 H         7.0891982178       -1.6579089696        1.6635388935
 H         5.5581371434       -1.6817337810        0.8176435546
 H         6.7062941181       -0.3367302234        0.4574365474
 H         2.0747624027        0.8162830072        2.9746584170
 H         1.3283590720       -0.7250306472        2.8448158169
 H         2.6595081128        1.7544011562       -2.6032510088
 H         3.5925101081        0.6898238594       -1.5487869520
 H        -0.9772983771        1.7965521612       -0.2754082696
 H        -0.1325110603        3.1499096354       -0.8157200342
 H        -0.3014238723        2.7476554852        0.9732938779
 H         2.3627611375        2.8379130626        1.2657879025
 H         3.3587015180        1.8679951101        0.1502029051
 H         2.3801834582        3.0181383015       -0.6580813123
 H         1.9797792455       -0.5354609496       -3.6924839526
 H         3.6643020386        0.0369181309       -4.0550457238
 H         2.6873758888       -4.8557851545       -1.5627813565
 H         1.9928202128       -3.3432704258       -0.9968781201
 H         3.5829279258       -3.6582602402       -5.4360112326
 H         4.4137681276       -2.1741115345       -5.3127514537
 H         2.6201716593       -2.1791157357       -5.3858497605
 H         5.4419267640       -3.5993602201       -3.4430210492
 H         4.5862678479       -4.3023270318       -2.1557012418
 H         4.3173848604       -4.9222799619       -3.6782426357
 H         0.6515920402       -5.4074597512       -0.3947251355
 H         0.3735594786       -5.4858153330       -2.1600824068
 H        -3.5672991062       -4.1771641851       -2.8488422418
 H        -4.7529048557       -4.2424021003       -1.6725391231
 H        -2.5262456021       -5.7238849111       -2.0015360028
 H        -3.1525792294       -6.1652884562       -0.5020705160
 H        -1.4592777160       -6.4134963678       -0.8351474238
 H        -1.0471775414       -3.6623435982        1.3486808201
 H        -2.5939180429       -4.1960993927        1.6498793060
 H        -1.2821193780       -5.3633426469        1.1660911870
 H        -5.1736323696       -2.6759526709       -3.6808347510
 H        -5.5754384142       -2.1763861566       -2.1028518701
 H        -4.4045218599        3.0445331466       -1.3181623487
 H        -5.8168262526        2.4209714823       -2.0717262260
 H        -3.8537588354        0.6055395686       -5.1451422666
 H        -2.7091002105        1.0363590878       -4.0156302438
 H        -4.0752347367        2.1290371425       -4.2003783836
 H        -6.0612952165       -0.1741051639       -4.6050966515
 H        -6.7343309751       -0.4332057619       -3.0393416128
 H        -6.3802854642        1.1630334720       -3.5802439385
 H        -4.9753995942        1.7555226866        0.8269021994
 H        -6.5665997345        1.3192392727        0.1285493938
 H        -6.6126535345        6.7971511630       -0.2517586852
 H        -5.0580615393        7.5152732421        0.0670755101
 H        -6.5767565991        4.7786012686        2.9862630235
 H        -7.2536015249        5.6226806327        1.7030472725
 H        -5.7992409735        6.3784451962        2.2492688536
 H        -3.2997932848        4.0285128602        1.2686016533
 H        -3.8759565843        4.5766011645        2.6908334699
 H        -4.5847499227        3.0005898354        2.2565094914
 H        -5.8406804949        8.0317878992       -2.2445621524
 H        -4.4886189796        6.8802638737       -2.3250745817
 H        -8.5374647357        5.3674336907       -6.3809423393
 H        -9.1080792385        6.8744039800       -5.8494148103
 H        -7.9047164645        6.7605732430       -7.1041173971
 H        -9.6079509822        5.2808413714       -4.1512928074
 H        -8.9912065985        4.8371417314       -2.6487045392
 H        -8.2714737648        4.1311958825       -3.9326485520
 H        -9.1000576556        7.9930171275       -3.6959195885
 H        -8.2564883923        7.6402065734       -2.1844283316
 H        -7.3112393483        8.3300754972       -3.4880789850
 Na       -1.6491546526       -0.8405568349       -0.6987704995
