155

 C         9.0038926054       -5.7595083723        4.6771037901
 C         7.8884575520       -5.1521909160        5.5168576196
 C         8.2017356615       -3.9008050450        6.2469826864
 C         8.0724918613       -2.8011292813        5.1016229771
 C         6.8560610147       -1.8057629143        4.9773595845
 C         7.1305391776       -3.7268266619        7.4827580190
 C         9.6035557084       -3.7020899827        6.9482858351
 O         6.7880043627       -5.5453069020        5.5144675367
 O         8.8971369272       -2.8879155811        4.2085714355
 C         6.7274122445       -1.0615979801        3.7101671757
 C         5.9556232692       -1.8322233329        2.6325871443
 C         6.1634388918       -1.2254407298        1.1626656589
 C         5.0713415418       -0.0580415083        1.2352244063
 C         3.5601027992       -0.2900627830        0.9323433615
 O         5.1472476649       -2.6880445564        2.8621576296
 O         5.4161268869        1.0026583243        1.6945827702
 C         7.4781173694       -0.5422697501        0.8919637440
 C         5.8304473236       -2.2925483141        0.0792342689
 C         2.5340963232        0.6538344338        1.6208272443
 C         1.3604668171        0.7775739467        0.6717816576
 C         1.4742114324        1.5469913421       -0.6681023341
 C         1.3046062039        0.4481929863       -1.8144509092
 C         2.5129502812        0.0603096803       -2.8064683664
 C         0.2403411531        2.5566498261       -0.9232676162
 C         2.7879267730        2.3407913348       -0.7058468498
 O         0.3355378188        0.3181260815        0.9825344294
 O         0.1989776257       -0.0814416692       -1.9524560730
 C         2.0991964195       -1.0305561429       -3.7789226479
 C         2.0441356870       -2.4247608728       -3.1766141309
 C         1.8534563753       -3.7660991680       -4.0796261071
 C         0.6286445815       -4.5876201584       -3.4419094776
 C         0.7387006307       -5.0786367998       -2.0513111292
 O         2.2003364107       -2.5284519863       -1.9799393250
 O        -0.4075257109       -4.6932639270       -4.0840586032
 C         1.6139573608       -3.3923555958       -5.5759277435
 C         3.1093358880       -4.5421461462       -3.7497006344
 C        -0.5508232066       -5.2120213316       -1.2443082792
 C        -1.1511630585       -3.9443700293       -0.5757543764
 C        -2.7331661717       -4.1405165605        0.0727304791
 C        -3.6720620964       -2.9471878605       -0.1551161787
 C        -4.7213269081       -3.0484562989       -1.2158874602
 C        -3.1938551929       -5.4833673281       -0.4926699175
 C        -2.4984967411       -4.2919361760        1.6157252195
 O        -0.5934376912       -2.9218010115       -0.3410474228
 O        -3.4502283515       -1.8463159085        0.2938746455
 C        -5.0783056759       -1.7321110940       -1.8235183636
 C        -3.8220135422       -0.7815295941       -2.1199511184
 C        -4.1323168744        0.7839711703       -2.0237864685
 C        -3.9091608934        1.3115068441       -0.6048055817
 C        -4.9252799552        2.3221139446       -0.0442812631
 O        -2.6939844338       -1.2004256592       -2.3209120803
 O        -2.9471143225        0.9456114149        0.0516693904
 C        -3.0025565675        1.4241304981       -2.9063970965
 C        -5.5832638820        1.1479187661       -2.5472738975
 C        -4.6973265110        2.4717201890        1.4887571179
 C        -5.1465247672        3.7613447321        2.0767523084
 C        -4.4343343382        4.9855686494        1.6328223477
 C        -4.7441075939        5.5748455860        0.1563260043
 C        -6.1739315284        5.5521610832       -0.4230166304
 C        -4.8220099731        6.1646463607        2.5616992996
 C        -2.9536407518        4.7869782125        1.6452648693
 O        -5.9366298765        3.7949296151        2.9869901993
 O        -3.7282968190        5.7128735954       -0.4780295218
 C        -6.3895060655        6.5503233155       -1.5900003257
 C        -7.7101932994        6.5071908464       -2.2596188834
 C        -7.6868053130        6.5354244351       -3.8055008537
 C        -6.9531246408        5.3598676680       -4.2427501739
 C        -6.6484719389        5.2760032485       -5.7187964838
 O        -8.7401473666        6.4978072361       -1.5690963992
 O        -6.5277372365        4.4750294524       -3.4674825854
 C        -9.2069234206        6.4262452385       -4.3322250060
 C        -7.0727564393        7.8477571723       -4.4149560635
 H         9.1370754771       -5.0932423654        3.8522433719
 H         9.8951500080       -5.8907463390        5.2029846836
 H         8.5664783737       -6.6661788649        4.2769008447
 H         5.8640675462       -2.1085439429        5.3152667988
 H         7.1224201675       -1.0548653329        5.7138581261
 H         6.1065908405       -3.9015893571        7.1273962356
 H         7.2831832935       -2.6043777353        7.6958280739
 H         7.4627325952       -4.3444785759        8.2681789243
 H        10.3244269772       -3.6505268660        6.2266720854
 H         9.5126864413       -2.6915537430        7.2706640063
 H         9.8536737807       -4.4966330269        7.6537181615
 H         6.1115040991       -0.1459587847        3.7569099580
 H         7.6909847968       -0.9040544637        3.1969696979
 H         3.4020116390       -0.3983957608       -0.1389468782
 H         3.3718243101       -1.2813230606        1.3501169697
 H         7.6989717856        0.3392660576        1.4606138674
 H         7.4726941562       -0.1471153983       -0.1539972675
 H         8.3217371893       -1.2998159133        0.8834759430
 H         6.6246338764       -3.0310301719        0.0679278910
 H         4.9291454674       -2.9344834262        0.2312792314
 H         5.9596462259       -1.9202231362       -0.9335590175
 H         2.8585586191        1.6835198730        1.9395083220
 H         2.2035802944        0.2574292175        2.5343121973
 H         2.9938241613        0.8371728209       -3.4180079687
 H         3.3813669416       -0.2567758329       -2.2619652160
 H        -0.7258189663        1.9770788737       -0.8393391938
 H         0.2499922361        2.9127332846       -1.9347386088
 H         0.2296001247        3.4819061868       -0.2319347305
 H         2.9706533087        3.0916779074        0.0699308616
 H         3.5665655963        1.6352599028       -0.8351575133
 H         2.8472363758        3.0218294420       -1.5322316142
 H         1.0927234841       -0.8887860870       -4.3159265657
 H         2.8303576389       -1.2120868793       -4.6090273498
 H         1.2698289771       -6.0293302067       -2.1514721567
 H         1.3304594281       -4.2780727246       -1.5852106111
 H         1.2188539740       -4.2752052423       -6.0723079336
 H         2.5380052825       -3.0827465044       -6.1037112597
 H         0.8175279226       -2.6252638587       -5.6482737330
 H         3.9314896760       -4.1532957225       -4.2613269319
 H         3.2911049163       -4.5330775236       -2.6368820372
 H         3.0877073322       -5.6623593696       -4.0390108248
 H        -0.2565354923       -5.8952129674       -0.3549481573
 H        -1.2510565821       -5.7940103978       -1.8474447511
 H        -4.5211548660       -3.7955627231       -2.0057990724
 H        -5.7180616233       -3.3380876815       -0.7781000286
 H        -3.3300750399       -5.4940318749       -1.5859438124
 H        -4.1553500944       -5.6962569296        0.0766433671
 H        -2.5380415052       -6.2791858483       -0.2239742953
 H        -2.1365510670       -3.3638512149        2.0179129334
 H        -3.4295368101       -4.5919744548        2.0928183871
 H        -1.7977615362       -5.0786039282        1.8297903460
 H        -5.7248272752       -1.7726981994       -2.7050180352
 H        -5.7039870471       -1.1436833578       -1.0822147010
 H        -4.6925203311        3.2300195627       -0.5712555756
 H        -5.9515183201        1.9016513392       -0.2462176905
 H        -3.3705984075        1.2928230845       -3.9384656552
 H        -2.0422597269        1.0538199377       -2.6906336989
 H        -2.9506923474        2.4962748235       -2.6985936062
 H        -5.7789219827        0.7656444080       -3.6078698828
 H        -6.3393682246        0.8724013318       -1.8655113397
 H        -5.5716757780        2.2968568470       -2.7071774115
 H        -3.7017010508        2.3030555116        1.7131273671
 H        -5.3293960383        1.6579677303        1.9280131475
 H        -6.4236562501        4.5697678028       -0.8081498262
 H        -6.9419325301        5.7106851133        0.3468610266
 H        -4.5223704575        6.0462944009        3.6550430386
 H        -5.8875649395        6.3329839693        2.4614830158
 H        -4.3155497952        7.0373503902        2.1855505129
 H        -2.6300186814        4.0258771820        0.8527281673
 H        -2.5448085537        5.7963227541        1.4764690924
 H        -2.5541449733        4.6392754741        2.5708170532
 H        -6.3556245862        7.5031152777       -1.0169604383
 H        -5.5817905543        6.6161385976       -2.3073352245
 H        -7.1706540996        6.0444886210       -6.2867139325
 H        -5.5949670151        5.6510503457       -5.8380674793
 H        -6.8419905229        4.3568778918       -6.2911258169
 H        -9.3112916656        7.0818963913       -5.2102474136
 H        -9.8507724080        6.7826942622       -3.5874747553
 H        -9.4462193133        5.3643760067       -4.5450945672
 H        -7.3552264606        8.0344001424       -5.4059770310
 H        -7.4472863917        8.6768634137       -3.8452906112
 H        -5.9193925665        7.8339179374       -4.3671210856
 Na       -1.3409503302       -0.7261395091       -0.1588650810
