155

 C         8.7178072092       -6.4558719502        6.2914234720
 C         8.0075986883       -5.2368454309        5.7815688574
 C         8.6566331542       -3.8545837384        5.8396351737
 C         8.6678757280       -3.0886237505        4.4747333427
 C         7.5067950747       -3.0167462059        3.5714316347
 C         7.8918731133       -3.0396215899        6.8571926152
 C        10.2183612087       -3.8646133696        6.1421388118
 O         6.9185502160       -5.3998208266        5.2030568957
 O         9.7352720024       -2.6507739267        4.0248038438
 C         7.8164023779       -2.5098295610        2.1179431971
 C         6.5244927470       -1.8132955699        1.6125502640
 C         6.4050268736       -1.6615630215        0.0292310132
 C         5.2423040287       -0.6588063053       -0.2661641924
 C         3.7277467520       -1.1485898708        0.0739766128
 O         5.7297473013       -1.2101742893        2.3612571478
 O         5.4575013193        0.4067184500       -0.7362257576
 C         7.7979043513       -1.2068385443       -0.6125403537
 C         5.9737461999       -3.0256004067       -0.6477600511
 C         2.9027937402        0.1183153181        0.5330321664
 C         1.5688587627        0.1488728081       -0.0823096826
 C         1.4365228228        1.0451865657       -1.4169369820
 C         0.8784864740       -0.0234027216       -2.4846111225
 C         1.9457509784       -0.5615130792       -3.5257346355
 C         0.3397818233        2.2564346614       -1.3221846910
 C         2.7903921086        1.7359862209       -1.9969499308
 O         0.6492264520       -0.4046700420        0.5020515896
 O        -0.2477752932       -0.4981822010       -2.4014301105
 C         1.4454926875       -1.9308752611       -4.0823682150
 C         2.3620824777       -3.0531124659       -3.5833729664
 C         1.8408977463       -4.4909249118       -3.7447102923
 C         0.5512563607       -4.7438160938       -2.7812186173
 C         0.7553538309       -5.4398776208       -1.4437117812
 O         3.5260106197       -2.7769580716       -3.2694939264
 O        -0.5361473561       -4.4058936089       -3.1305088107
 C         1.4309085631       -4.8949032096       -5.1967150920
 C         3.0293622330       -5.4965921014       -3.3984608401
 C        -0.4040015167       -5.5466415017       -0.5158739075
 C        -1.2005255804       -4.2225193718       -0.2815886256
 C        -2.7315739704       -4.3683207352        0.1939744550
 C        -3.4485598281       -3.0287453435        0.0396309406
 C        -4.7532956622       -2.8530081822       -0.9025142877
 C        -3.5417244193       -5.5622473958       -0.5295805686
 C        -2.6541601594       -4.5971051427        1.7760219012
 O        -0.7084452561       -3.1027303717       -0.3851814816
 O        -3.1819660354       -2.1240006383        0.7728207620
 C        -5.4849905291       -1.5382647042       -0.8152107094
 C        -4.5993022338       -0.3285589049       -1.3229694299
 C        -4.9931986103        1.1630805270       -0.9696149924
 C        -4.0843082084        1.5037521497        0.4079199603
 C        -4.5255717211        2.6730758401        1.2144747127
 O        -3.5194980391       -0.6163123454       -1.8498014981
 O        -3.1257792683        0.8444234306        0.6961991445
 C        -4.5547525837        2.2593604446       -2.0687804035
 C        -6.5311407700        1.0897609265       -0.7262393468
 C        -4.8267119026        4.0600318276        0.5206332819
 C        -5.2819988758        5.0109699619        1.6177221828
 C        -5.2035162532        6.6341800667        1.5365099792
 C        -4.6164956710        7.1876136386        0.1882752963
 C        -5.1800897469        8.5379976218       -0.5772331465
 C        -6.5593706377        7.2212280037        1.9930000639
 C        -4.1230410017        6.9547301275        2.5859599893
 O        -5.8753097625        4.5212871653        2.5746349538
 O        -3.7154900354        6.5300206125       -0.2485409011
 C        -5.6838846742        8.0298758604       -1.8710858113
 C        -7.0798634469        7.3034932124       -1.5533992383
 C        -7.6451144955        6.3378409333       -2.7129043138
 C        -7.1022542638        4.8814057830       -2.6600958282
 C        -7.1228170335        4.0329054403       -3.9015958288
 O        -7.7112558784        7.4643228847       -0.6058342036
 O        -6.6842130725        4.4398215773       -1.5887716980
 C        -9.1734388307        6.1562214122       -2.7103943830
 C        -7.3607534817        6.8595147718       -4.0959826928
 H         9.7067380973       -6.6786708793        5.7956557931
 H         9.0748794621       -6.3406391550        7.3307225575
 H         8.1664835267       -7.4071013076        6.0777386166
 H         6.8124867563       -3.8566273634        3.4368448622
 H         6.8185838373       -2.2341028167        4.0136186927
 H         6.8527826953       -2.8834817570        6.5333861548
 H         8.3709146204       -2.0586685855        7.0619222629
 H         7.8343221831       -3.5242215684        7.7707421312
 H        10.6349126796       -4.6032736651        5.4969684330
 H        10.6118125965       -2.8170300143        6.0020540010
 H        10.5948742785       -4.2821093778        7.1515336690
 H         8.5911650993       -1.7642728756        2.2175722493
 H         8.1600156852       -3.1756746514        1.3660735862
 H         3.3987093789       -1.5900796795       -0.8930636231
 H         3.7166319398       -1.9982279731        0.7948782169
 H         8.2237807437       -0.2968082391       -0.2386500614
 H         7.5414791813       -0.9523905718       -1.6486701278
 H         8.5023782072       -2.0687021102       -0.5694431837
 H         6.6617704760       -3.7681356991       -0.3671331258
 H         5.0740830654       -3.4451695193       -0.1514698557
 H         5.8469472185       -2.7896309719       -1.6920017832
 H         3.5289528269        0.9812342164        0.1321884913
 H         2.9057082005        0.1847723467        1.6143976031
 H         2.1198574378        0.0843640255       -4.3478699238
 H         2.9751448623       -0.7605636964       -3.0717376642
 H        -0.6380177877        1.8292431996       -1.0909833399
 H         0.3205525757        2.7767197139       -2.2084424910
 H         0.6682157342        2.9510225551       -0.5508158941
 H         3.1067124255        2.5178924363       -1.2284364407
 H         3.6037839772        1.0437640925       -2.2149753967
 H         2.4777246199        2.3472491108       -2.8622757342
 H         0.3624345503       -2.1866457182       -3.7906083836
 H         1.3462167466       -1.8865700078       -5.2008422228
 H         1.3521471948       -6.3559827612       -1.5731135367
 H         1.4875900599       -4.7450508002       -0.9216040056
 H         1.0885745664       -5.8807760397       -5.0844602354
 H         2.2592277658       -4.8938080832       -5.8902664814
 H         0.6852496889       -4.2531554682       -5.6473793814
 H         3.6523184954       -5.5710952680       -4.2855610739
 H         3.6669812909       -5.0079503498       -2.6828183326
 H         2.5506435185       -6.3899145170       -3.0814204209
 H         0.0230656250       -5.7571579610        0.5008280923
 H        -0.9285446637       -6.4923730771       -0.8098340949
 H        -4.5943249280       -3.0978530787       -1.9360291806
 H        -5.4898861260       -3.6553152574       -0.6388998991
 H        -3.4620578477       -5.4624641320       -1.5891791032
 H        -4.6325331652       -5.5931498433       -0.2287228898
 H        -3.1329989809       -6.4994874091       -0.4215150342
 H        -2.1207635207       -3.6676715563        2.0990733951
 H        -3.5828085812       -4.8107189588        2.3406767353
 H        -1.9773413270       -5.4406219302        1.9582426575
 H        -6.3523129975       -1.5014491334       -1.5671049944
 H        -5.8664050756       -1.2611203262        0.1758041483
 H        -5.3855586764        2.3574952756        1.8536125665
 H        -3.7075038456        2.8447566823        1.9283587106
 H        -4.6783409430        1.7108478633       -3.0162742057
 H        -3.5632320736        2.5766622265       -2.0424138482
 H        -5.1869521666        3.1407329734       -2.0799648397
 H        -7.2114626298        0.7310770989       -1.4767970897
 H        -6.8207263193        0.4515399696        0.0455007992
 H        -7.0286114493        2.0368897390       -0.4734923927
 H        -5.6160675312        3.9238861199       -0.0971664589
 H        -3.8505191674        4.3578946588        0.0122750598
 H        -6.0982378698        8.9166301647        0.0001123073
 H        -4.3861910153        9.3209589264       -0.5400583180
 H        -6.8474977378        6.7966025314        2.9742767303
 H        -7.2363847466        7.0325639675        1.1839937972
 H        -6.5423668737        8.2767246225        2.1720490021
 H        -3.0965202731        6.6134691282        2.3764533572
 H        -3.9489563388        8.0503719328        2.6870681664
 H        -4.3731221115        6.7750346849        3.6166297809
 H        -5.9490503041        8.9373749664       -2.4538067458
 H        -5.0579861281        7.3790274512       -2.4539463218
 H        -6.2009653237        3.6726894618       -4.3149950513
 H        -7.7584937149        3.2274075610       -3.6016986666
 H        -7.5421375485        4.5669293181       -4.7762902258
 H        -9.2725089412        5.2818914165       -3.3910394091
 H        -9.7260718437        6.9237753392       -3.1832853031
 H        -9.4167698037        5.8706189546       -1.6816838329
 H        -7.3274779415        7.8979456814       -4.1535379860
 H        -6.5221542416        6.4516066810       -4.6256860311
 H        -8.2525839412        6.6296013628       -4.7632729425
 Na       -1.5602989795       -0.5824123165       -0.4865291343
