155

 C         8.9376103123       -6.1269483771        5.5518448703
 C         8.0402337900       -4.8871864698        5.6218807770
 C         8.6104144173       -3.4785676112        5.2037776035
 C         8.7355798806       -3.4915751537        3.6064366380
 C         7.3929958709       -3.6770407950        2.9027733905
 C         7.6618041917       -2.3064164674        5.5895927967
 C         9.9659484540       -3.3273173368        5.9611406217
 O         6.8614489336       -5.0118149724        5.9159985352
 O         9.7746238109       -3.3015918921        3.0015007874
 C         7.3417177379       -3.5498945555        1.4000796441
 C         6.6979848408       -2.2655674609        1.0341111365
 C         6.4401823114       -1.8832159976       -0.4342835553
 C         5.3324067874       -0.8716878979       -0.6151377860
 C         3.9405507786       -1.2200613751       -0.0654501849
 O         6.3794198841       -1.5540046972        1.9831452250
 O         5.6419035988        0.2173705311       -1.0087139449
 C         7.6583128068       -1.2764533832       -1.1569235267
 C         5.9670049922       -3.2011600168       -1.2017459275
 C         3.1418253772        0.1167339358        0.3096071372
 C         1.8305987652        0.2959123799       -0.3355943647
 C         1.7041891077        0.8520763459       -1.8572532216
 C         1.0998428272       -0.2036804665       -2.7553590192
 C         1.8171535725       -0.7522263378       -4.0040672029
 C         0.6986444380        2.0043470955       -1.8143909114
 C         3.0045283115        1.3817666748       -2.4075148823
 O         0.8623389657       -0.2269568052        0.2024661400
 O        -0.0235735494       -0.5797590521       -2.5880914981
 C         1.6218112778       -2.2737432103       -4.3773203096
 C         1.7745690762       -3.1743852646       -3.1728714044
 C         1.6214991990       -4.7035785209       -3.5020880490
 C         0.4847627010       -5.3118633861       -2.4678240319
 C         0.7192203591       -5.1801789577       -0.9927016600
 O         1.8927156730       -2.6420692642       -2.0701865169
 O        -0.4877079469       -5.8655514909       -2.9396931336
 C         1.1132610117       -5.1051435687       -4.9117782420
 C         2.9183805259       -5.3728442832       -3.1071700281
 C        -0.6224275206       -5.3570582030       -0.2732728004
 C        -1.4710538718       -4.1216561645       -0.2061117009
 C        -2.8985619045       -4.1536710616        0.4085564631
 C        -3.5087851884       -2.7454752999        0.6889995007
 C        -5.0098270601       -2.5899988005        0.3455294401
 C        -3.7720654200       -4.9799573265       -0.5292752933
 C        -3.0174623276       -4.8297388562        1.8115377084
 O        -0.9054274388       -3.0953434343       -0.5451605293
 O        -2.8854900421       -1.9172004576        1.2958416264
 C        -5.4202358860       -1.1708199730        0.6292997028
 C        -4.5187314052       -0.2042802468       -0.2361846871
 C        -4.6106336015        1.2761949778       -0.0846809389
 C        -3.2412689947        1.8103181671        0.5271658052
 C        -3.1397231490        2.6960209891        1.7615780041
 O        -3.8493254495       -0.6770607268       -1.0955435724
 O        -2.1733402343        1.3133595870        0.1570657222
 C        -4.5296405530        1.8829435387       -1.5843049545
 C        -5.8565079790        1.7754868182        0.6551343224
 C        -3.1472885187        4.2455255976        1.5958274718
 C        -4.5933737658        4.7968487686        1.8995960359
 C        -4.7827583678        6.3848688088        1.9166363783
 C        -4.6086728378        6.9442278449        0.4400283858
 C        -5.6267999660        7.9838098227       -0.1888826388
 C        -6.1064673516        6.7838901751        2.6579071971
 C        -3.5668851817        6.9048748578        2.7111487394
 O        -5.4905420776        4.0775366814        2.3109571717
 O        -3.7756470017        6.4728102923       -0.2978880251
 C        -6.0184056808        7.6483637117       -1.6283950949
 C        -7.5894709223        7.6456961119       -1.7294763600
 C        -8.3009911231        6.8746416149       -2.9885892379
 C        -8.0107194732        5.2691614733       -3.0962964412
 C        -8.9186094267        4.5645994107       -4.0659048387
 O        -8.3757970852        8.1375386605       -0.9954626688
 O        -6.9430717705        4.8538593985       -2.7265077575
 C        -9.8800024772        7.1341551819       -2.7807961301
 C        -7.6965221186        7.4797455116       -4.2469725716
 H         9.3686942354       -6.2715172293        4.5135211167
 H         9.8031141484       -6.2015956250        6.2354929143
 H         8.3850631671       -7.0442495793        5.8930880827
 H         6.9574034031       -4.6399134736        3.2649995682
 H         6.7139977440       -2.9358283818        3.3593193194
 H         6.6823690355       -2.7014906381        5.6956577737
 H         7.4554580800       -1.5386351117        4.8262546113
 H         7.8375258080       -1.8214001587        6.4725487434
 H        10.6393778432       -4.0782554104        5.6769684333
 H        10.6839458854       -2.5288602423        5.6874456399
 H         9.9012441244       -3.4510871501        7.0867359461
 H         8.3149634167       -3.6015651312        0.9918172384
 H         6.7249534010       -4.3377385476        0.9665404776
 H         3.3767807122       -1.9375199355       -0.7453719402
 H         4.0289722886       -1.7352058458        0.8938227042
 H         8.1078909492       -0.4282880277       -0.6655715073
 H         7.4727029882       -0.9890770152       -2.2431800309
 H         8.4469138235       -2.0727449468       -1.2217125354
 H         6.7359305866       -3.9251569760       -1.3014008286
 H         5.0881960406       -3.5273776888       -0.6973719632
 H         5.7842910530       -2.9250517827       -2.2359003198
 H         3.7985788387        0.9330297257        0.1139784190
 H         3.0600316018        0.0685621400        1.4501772885
 H         1.4715548962       -0.1595529781       -4.9090815984
 H         2.8765701611       -0.5532183666       -3.9627689456
 H        -0.3461630060        1.6494819616       -1.6359080205
 H         0.7501953894        2.4833698649       -2.7445962510
 H         0.9752476273        2.7351063360       -1.0366719993
 H         3.3996081881        2.2136992682       -1.8297125522
 H         3.7791971272        0.6541377888       -2.5582246835
 H         2.9210884496        1.9129781067       -3.3726424709
 H         0.6740904574       -2.5212023501       -4.8036303122
 H         2.3551248884       -2.4900380868       -5.2709344543
 H         1.3450169167       -6.0714124595       -0.7126152638
 H         1.1871760762       -4.2345349527       -0.6610032005
 H         1.3183142568       -6.1432724487       -5.0925578284
 H         1.5690231455       -4.6270392467       -5.8032406962
 H         0.0164550076       -5.0566049354       -4.9968949960
 H         3.7738289987       -4.9882308638       -3.6171637972
 H         2.9845981285       -5.2809629136       -2.0157775805
 H         2.9442350341       -6.4318878558       -3.3955545567
 H        -0.4825165661       -5.6125751145        0.8097068874
 H        -1.1527644666       -6.2213963871       -0.8140337634
 H        -5.1566287550       -2.8167270007       -0.7545205758
 H        -5.5309498023       -3.3402642762        0.9159960609
 H        -3.8465658140       -4.5127954577       -1.4815665476
 H        -4.8129769160       -4.9987909273       -0.1681330535
 H        -3.4343560378       -5.9933201028       -0.6491647235
 H        -2.5784606713       -4.1796817008        2.5393700095
 H        -4.0736361601       -4.9746521771        2.1266955589
 H        -2.5453645972       -5.8216586176        1.7860549117
 H        -6.4813322745       -1.0062594825        0.4192054428
 H        -5.2241013275       -0.8252690988        1.7001389686
 H        -3.9789564932        2.4769637021        2.4532753089
 H        -2.1725692557        2.4157048507        2.1708962026
 H        -5.3467277568        1.5012647970       -2.2399702846
 H        -3.5821980118        1.5101579053       -1.9320262657
 H        -4.6240260933        2.9694938338       -1.5726651012
 H        -6.6735249558        1.6008815803       -0.0342963515
 H        -5.9619504151        1.3802644933        1.6234593224
 H        -5.9743579196        2.8862469174        0.7579983193
 H        -2.6764844427        4.5064997225        0.6408322354
 H        -2.5441739644        4.7749268828        2.4610620525
 H        -6.5344268610        8.0272172401        0.3414683756
 H        -5.2588737155        8.9732763028       -0.0568390988
 H        -6.0160038327        6.6095710596        3.7231089426
 H        -6.9339305286        6.1813782886        2.3593248055
 H        -6.2621400435        7.8645558500        2.4019480573
 H        -2.5351437455        6.8788615005        2.2361301494
 H        -3.7651361783        7.9899816909        2.7742581286
 H        -3.3461479240        6.6911754943        3.7136668759
 H        -5.5553932349        8.3129955345       -2.3467554350
 H        -5.7758353588        6.6063661449       -1.9937706905
 H        -9.0519594654        5.2487925950       -4.9136700685
 H        -8.2922823648        3.7600070357       -4.5029586424
 H        -9.8703192125        4.1184892831       -3.6676511609
 H       -10.2726277496        6.8817107459       -3.7193063415
 H       -10.0418324859        8.1276422613       -2.4189710379
 H       -10.2598082764        6.4703501191       -1.9725489592
 H        -7.3394628969        8.4596776765       -4.0831206475
 H        -6.8623795894        6.9370326601       -4.5123262399
 H        -8.4821899671        7.5593388853       -5.0579079956
 Na       -1.2484303319       -0.7680231736       -0.6707844226
