155

 C         9.3758886164       -5.2776657148        5.6887093609
 C         8.3088200729       -4.2465803735        5.4726458896
 C         8.5683069023       -3.2048168397        4.2253210713
 C         8.6392938540       -4.1307736879        2.9570270478
 C         7.3142115467       -4.7375994057        2.1822778670
 C         7.4388658379       -2.2086322119        4.3019148119
 C         9.9099308476       -2.5010292180        4.3414172229
 O         7.2351260455       -4.2876318441        6.0682052882
 O         9.7202035261       -4.4280876523        2.4880194458
 C         7.2797026510       -4.1367954235        0.7573059416
 C         6.2875576570       -3.0070763662        0.5469793598
 C         6.4817172462       -2.1920758690       -0.7981661052
 C         5.5600116268       -0.9027874507       -0.7108291277
 C         3.9763555970       -1.0470360403       -0.6715283413
 O         5.3311149722       -2.7941701495        1.2792002242
 O         6.0525049358        0.1826543211       -0.6254370019
 C         7.8465084898       -1.6226913416       -1.2787457495
 C         5.9991078859       -3.1778097462       -1.8099048386
 C         3.3088041885        0.2971506347       -0.5104391869
 C         1.8216633788        0.2388036383       -0.9110416266
 C         1.2260377455        0.7215096587       -2.3061177993
 C         0.3368470483       -0.6126085950       -2.8669638666
 C         1.1417938226       -1.5234171044       -3.9355513418
 C         0.2241289401        1.9394695036       -2.1245393694
 C         2.3498066964        1.1241979670       -3.2846436131
 O         1.0556506402       -0.1655451835       -0.0032481180
 O        -0.7816795559       -0.8669875010       -2.5043397404
 C         0.7018398702       -2.9723117495       -3.7629597150
 C         1.8008531380       -3.9757629148       -3.3333688688
 C         1.3049847963       -5.4285046041       -3.3557022811
 C         0.3013554025       -5.2625304107       -2.1276323025
 C         0.8026602297       -5.1139071687       -0.7246413302
 O         2.9309533875       -3.6872492368       -2.9803996983
 O        -0.8553525675       -5.3373163012       -2.4306509425
 C         0.6026857225       -5.9562158785       -4.6133801055
 C         2.5354185090       -6.3952218209       -2.8715262465
 C        -0.2893736186       -5.1475247779        0.3469120012
 C        -1.1844251569       -3.8834723208        0.0861284153
 C        -2.7150474955       -3.8773365840        0.6338475137
 C        -2.9261111657       -2.4926828107        1.3647593901
 C        -4.5202684949       -2.0808942328        1.8047747961
 C        -3.4709835996       -3.9004891895       -0.6653430202
 C        -3.1901891318       -5.0272584396        1.5401830765
 O        -0.7500573848       -2.9439434303       -0.5630790413
 O        -2.0704456891       -1.7329859429        1.6875202888
 C        -4.8420028425       -0.6440903682        1.3546744580
 C        -4.0887968226       -0.0686216346        0.2188665303
 C        -3.9427642347        1.5378857159        0.1884363995
 C        -2.8732338483        1.8892958454        1.2570520401
 C        -3.2103518282        2.7694653668        2.5132631422
 O        -3.5369732550       -0.7792541055       -0.5758980046
 O        -1.7744734366        1.3230918706        1.1245447014
 C        -3.3683062234        2.0546654562       -1.2000979110
 C        -5.3131941051        2.2344955479        0.4757435807
 C        -3.0579089754        4.2932368784        2.0001426151
 C        -3.8962348139        5.3668351079        2.7311377158
 C        -4.1228650501        6.7133808774        1.8712825219
 C        -5.0491097043        6.2742240103        0.6434969906
 C        -6.5795583735        6.7227033281        0.5526962979
 C        -4.8801654543        7.7179331703        2.7727872803
 C        -2.8017113486        7.2353313640        1.1959909033
 O        -4.3559611149        5.2403340065        3.8205181853
 O        -4.5203631607        5.7123109991       -0.2942386957
 C        -6.8259733621        7.0558076819       -0.9549200937
 C        -8.1608347515        7.0308335652       -1.5237279546
 C        -8.3416715383        7.5430493608       -3.0100777915
 C        -9.0399216099        6.3140678963       -3.6619719525
 C       -10.5108040934        5.9524016297       -3.2316750357
 O        -9.0879049048        6.6625191570       -0.8116877247
 O        -8.4526426065        5.4915006385       -4.3694436500
 C        -9.2552282164        8.7630060689       -2.9889004189
 C        -6.9835052589        7.8920916777       -3.6681189473
 H         9.2329822557       -5.8427723730        6.5557853289
 H         9.2482339862       -6.1058502553        5.0098056027
 H        10.3685192777       -4.9240941299        5.6951834167
 H         7.4894085583       -5.8143457860        2.1791635665
 H         6.4877852353       -4.5297534752        2.8336860312
 H         6.6447680603       -2.5461732694        5.0319227817
 H         6.9787759637       -1.9132262335        3.3773847133
 H         7.6663234996       -1.2007477578        4.7795219749
 H        10.7560929083       -3.2379217823        4.2130680172
 H        10.1582747545       -1.8326165344        3.5542379115
 H        10.0252028053       -1.9537594426        5.2379117032
 H         8.2783704711       -3.7624570577        0.5238443497
 H         7.1621816881       -5.0416416175        0.1195816403
 H         3.7185266447       -1.5099678757       -1.6517203751
 H         3.6977104231       -1.7197760631        0.1145826910
 H         8.2835423470       -0.9257223135       -0.5271072425
 H         7.6117686934       -1.0677487668       -2.1401640363
 H         8.6270825942       -2.2790505447       -1.6314180713
 H         6.6957558089       -3.9846281632       -1.8917353138
 H         4.9558846071       -3.5107397048       -1.5371117711
 H         5.9805914306       -2.7806766882       -2.8254698662
 H         3.9631829015        1.0348100528       -1.0055579190
 H         3.3251470824        0.5915835359        0.5516160082
 H         0.8564826759       -1.0040286557       -4.8535133533
 H         2.2150002064       -1.3955636027       -3.7974068588
 H        -0.3222630134        1.9008637940       -1.2337023072
 H        -0.4638570569        2.0261752272       -2.9525157405
 H         0.8290507037        2.8289947012       -2.0728175126
 H         2.6578613159        2.1789681757       -3.0320204409
 H         3.2372623606        0.4669542547       -3.2551930733
 H         1.9842823407        0.9451112223       -4.2966198505
 H        -0.0680814771       -2.8671377125       -2.9710446512
 H         0.3751477118       -3.4087228890       -4.7300073287
 H         1.4745632717       -5.9094789351       -0.4499455684
 H         1.4634798029       -4.2511813428       -0.6830260878
 H         0.9057149570       -6.9664435519       -4.7992272016
 H         0.7756017189       -5.3784441724       -5.4984770409
 H        -0.4639780006       -6.0216650604       -4.4025844519
 H         3.1245697951       -6.8412403608       -3.6699609424
 H         3.1410627445       -5.8155054336       -2.2507094719
 H         2.2742960378       -7.2295596857       -2.2423354430
 H         0.0320806226       -5.1776718601        1.3412543311
 H        -0.8454376354       -6.0820003704        0.1921522647
 H        -5.1993692721       -2.8835718060        1.5158848170
 H        -4.5791971633       -2.1199260394        2.8846154360
 H        -3.3491189431       -2.9346208973       -1.2087345884
 H        -4.5240272630       -3.9839345309       -0.4904511625
 H        -3.1441208299       -4.8008097048       -1.2038600002
 H        -2.7492338762       -5.0228882098        2.5915929181
 H        -4.2752598660       -5.0506856687        1.6203746937
 H        -2.8062108206       -5.9396604291        1.1265472724
 H        -5.8680289143       -0.5673426934        1.0812470739
 H        -4.7196517424       -0.0825259559        2.2845273267
 H        -4.2603492224        2.4843043611        2.7566822481
 H        -2.5808907179        2.6463358821        3.3293916990
 H        -4.1332712957        1.7531652569       -1.8872718739
 H        -2.4262333418        1.5750833819       -1.3715692735
 H        -3.2129020165        3.1165654526       -1.1460860895
 H        -5.9951002865        1.7379804379       -0.2464315129
 H        -5.6028852230        2.0077613089        1.5576885075
 H        -5.1636457817        3.2970070986        0.4525484566
 H        -3.1846021753        4.3590054570        0.8721707108
 H        -1.9611900535        4.4417550374        2.0939345956
 H        -7.4018834631        5.9311179392        0.8414368857
 H        -6.8400768253        7.6627813200        1.1098295204
 H        -4.1252910289        8.1703503828        3.4516022212
 H        -5.6218934449        7.2301253220        3.4684940312
 H        -5.3784826106        8.4347957873        2.2124240064
 H        -2.3189783165        6.6091059501        0.5382512079
 H        -2.9592025561        8.2360570383        0.7912796927
 H        -1.8914889463        7.2045219908        1.8900683783
 H        -6.3629266408        7.9898438532       -1.2639285853
 H        -6.2567282276        6.2270809442       -1.4440501463
 H       -11.1079236466        6.5573994257       -3.8859222234
 H       -10.5333636744        4.9064614488       -3.4396045587
 H       -10.7492455690        6.1470871267       -2.2251673474
 H        -9.6488699462        8.9681572684       -4.0399177025
 H        -8.6756428535        9.6282451698       -2.6908367525
 H       -10.1147319609        8.5772517378       -2.3596823340
 H        -6.1606459414        7.1842827218       -3.4209950035
 H        -7.1277481282        7.7314260022       -4.7829235755
 H        -6.6551067243        8.8639018470       -3.5639655152
 Na       -1.2215372550       -0.4420932761       -0.2311063528
