155

 C         9.6495485180       -4.7969169318        5.6492463873
 C         8.4010386597       -4.0113360908        5.1550566427
 C         8.5725729231       -3.0258212464        3.9067840499
 C         8.4955989373       -4.0904077044        2.7012772112
 C         7.2101492424       -4.7703703563        2.1720681060
 C         7.3789946634       -2.0191449046        3.8418713259
 C         9.9262793989       -2.2173015243        3.9807302832
 O         7.2801091780       -4.1952142359        5.5636339935
 O         9.5431118090       -4.5811900155        2.2735672531
 C         6.9558373029       -4.6161519670        0.7045572884
 C         6.1363892697       -3.3288759701        0.2508296755
 C         6.4812377126       -2.3773685092       -0.9261210323
 C         5.7078521568       -1.0867601222       -0.7896445929
 C         4.2472852640       -0.9685887652       -1.1962646875
 O         5.0915668238       -3.0654260735        0.8757688119
 O         6.3333787498       -0.1712870397       -0.4110435150
 C         8.0210401625       -2.0749152465       -0.9232206578
 C         6.3007503923       -2.9707216227       -2.3325944148
 C         3.5693447088        0.3097306641       -0.8162892538
 C         2.0075847535        0.3268267509       -1.0160201819
 C         1.2844976826        0.7498219912       -2.3620139483
 C         0.4922196040       -0.6175909988       -2.7689481120
 C         1.0516002489       -1.4653724438       -3.8926313621
 C         0.2043012692        1.8898238846       -2.3036383262
 C         2.4386518674        1.1552378077       -3.3437140060
 O         1.3611742224       -0.2066127616       -0.1199642338
 O        -0.5523834340       -0.9426639349       -2.2438732332
 C         0.4004109351       -2.9459762357       -3.8312073615
 C         1.4867138023       -4.1447301131       -3.5950047327
 C         1.1256486593       -5.6274797442       -3.0837542109
 C         0.0813224353       -5.5204663546       -1.8291164942
 C         0.6533963362       -5.5076109982       -0.4587756226
 O         2.6238583192       -3.9202893811       -3.9238828930
 O        -1.1121476798       -5.3759006528       -2.0640275270
 C         0.2923008209       -6.2188763033       -4.2443275163
 C         2.4333350678       -6.3235796857       -2.7097436185
 C        -0.3979191944       -5.2224707093        0.5769039358
 C        -1.0492347614       -3.7879295709        0.5668324604
 C        -2.5620194038       -3.7010406849        0.7020998303
 C        -3.0007404532       -2.4372334885        1.4627052605
 C        -4.6040698696       -2.0667565202        1.6913438045
 C        -3.1525962560       -3.6555634412       -0.7539519886
 C        -3.2185384507       -4.8441064639        1.4112362948
 O        -0.3064473249       -2.8630938366        0.3130635665
 O        -2.2199307852       -1.7487818804        2.0925754110
 C        -4.8445428964       -0.5319049006        1.7598070065
 C        -4.1841686109        0.0466716899        0.4653623080
 C        -4.0726300601        1.6499286649        0.3994070529
 C        -2.8450759715        1.9281131334        1.3256134281
 C        -2.8131175360        2.9610955040        2.4219669319
 O        -3.6467768039       -0.7249534544       -0.3389189208
 O        -1.7606068225        1.2931367141        1.1955421965
 C        -3.5441833076        2.1819378367       -0.8740018713
 C        -5.4315687199        2.2623260299        0.9170176599
 C        -2.4452721044        4.4366063781        1.8983902417
 C        -3.4372556385        5.4415160160        2.5476628358
 C        -3.9853798300        6.6443910648        1.7024650208
 C        -5.0932081054        5.9606355268        0.7448161400
 C        -6.6306426239        6.4389409934        0.5580484518
 C        -4.6603513558        7.6797250012        2.6185356117
 C        -2.8560280640        7.3172903900        0.8849437496
 O        -3.8498746305        5.2533630034        3.6861109371
 O        -4.6196075611        5.0998413687        0.0237076951
 C        -6.7097070928        7.1479000751       -0.8635524902
 C        -8.1198114126        6.9677175018       -1.4419034023
 C        -8.4621841294        7.5039180968       -2.9007525375
 C        -9.5227101062        6.5589771435       -3.6886399231
 C       -11.0511929001        6.6064276842       -3.2722580290
 O        -9.0616924098        6.6199508623       -0.7962474184
 O        -9.2046203729        6.0571723182       -4.6734680522
 C        -9.1904147365        8.8417479208       -2.6037946328
 C        -7.2513682625        7.9012992758       -3.7349588764
 H         9.6395081837       -5.7310067710        5.1532421981
 H        10.6391905145       -4.4037781089        5.3277572511
 H         9.6710142118       -5.0473366043        6.7518846262
 H         7.4806703299       -5.7670574595        2.5194159690
 H         6.3433666340       -4.4844891270        2.7578854874
 H         6.3849235055       -2.5053458570        3.7897422888
 H         7.4304034736       -1.5334098335        2.9218572910
 H         7.4055109740       -1.2874482114        4.7189249621
 H        10.8723677162       -2.7355055093        3.6775489554
 H         9.9228279586       -1.3503119468        3.2919680696
 H        10.0322639083       -1.9435298662        5.0217118669
 H         7.8874618967       -4.7508797602        0.1957206918
 H         6.3448342315       -5.4639579305        0.4057706281
 H         4.2130648751       -1.1199442930       -2.3493052170
 H         3.6493495425       -1.8074660706       -0.8283398221
 H         8.4634936632       -1.8411721196        0.1144699553
 H         8.1998770380       -1.2591410568       -1.6137536898
 H         8.5725791156       -2.9408354825       -1.3602944414
 H         6.8025845861       -3.9407490095       -2.3646046196
 H         5.2431704251       -3.2158609995       -2.5534535090
 H         6.7453179443       -2.4630470814       -3.1470938077
 H         4.0737713808        1.2132116112       -1.2329508321
 H         3.7125530859        0.5738684946        0.2194569893
 H         0.9555012591       -0.9597093418       -4.8731749334
 H         2.1622044096       -1.4790643145       -3.7308496340
 H        -0.7083515028        1.4382056248       -2.0047009444
 H         0.0330553849        2.3578904974       -3.3236224040
 H         0.4508312387        2.6843862798       -1.5986558579
 H         2.7724257891        2.1926815366       -3.2087622094
 H         3.1666589196        0.3290110409       -3.2715621287
 H         1.9999059853        1.2273599066       -4.3174985058
 H        -0.2842979392       -3.1663954197       -2.9640669858
 H        -0.1218443783       -3.0797789537       -4.7669632559
 H         1.1928588237       -6.4338923518       -0.2396125358
 H         1.4478017224       -4.7285575076       -0.3291152815
 H        -0.1078060563       -7.1568752434       -3.7702681373
 H         0.9316177481       -6.6511769175       -5.0147674713
 H        -0.5331114911       -5.6073124626       -4.6464917475
 H         3.1907491910       -6.0821516276       -3.3842871600
 H         2.6944524324       -5.9597391020       -1.7623403208
 H         2.4534525696       -7.4267452931       -2.5896802208
 H         0.0445765840       -5.4522457038        1.5590581058
 H        -1.2775482902       -5.9254575258        0.4448358945
 H        -5.3977259735       -2.5361079626        1.0652085436
 H        -4.7678303924       -2.5468792682        2.7003258200
 H        -2.7706053562       -2.7285565124       -1.1677035605
 H        -4.1442227124       -3.5419562307       -0.7200223337
 H        -2.7908387531       -4.5401603265       -1.3352102686
 H        -2.5453477700       -5.1641878275        2.2298399836
 H        -4.1366371741       -4.6556440191        1.8975623963
 H        -3.4037625730       -5.6692564717        0.7802037166
 H        -5.8901248167       -0.4202657677        1.9838230242
 H        -4.3738982400       -0.0933895604        2.6929481354
 H        -3.7606598286        3.1154762702        2.9522056983
 H        -2.0864947155        2.5716095409        3.0401657582
 H        -4.1231332254        1.7255560512       -1.6472466922
 H        -2.4735947745        1.8585188771       -0.9080021724
 H        -3.7243286268        3.2394368615       -0.8736087642
 H        -6.2142726187        2.0288166514        0.1884161139
 H        -5.4429550369        1.8762036613        1.9742734321
 H        -5.2526447867        3.3802963007        0.8281280225
 H        -2.4091917615        4.4280804329        0.7356200178
 H        -1.5211603120        4.7500506291        2.3110777736
 H        -7.3890307249        5.6456663322        0.8981089016
 H        -6.8571264381        7.2620250966        1.3774802848
 H        -4.1684940592        7.8338988119        3.5958713659
 H        -5.6947017436        7.3818096772        2.9224542612
 H        -4.7481130119        8.5803326841        2.0685902660
 H        -2.2347787056        6.6031890961        0.2947221673
 H        -3.2178818701        8.1150717020        0.2798524058
 H        -2.0353621092        7.7582333664        1.5220113664
 H        -6.5227905409        8.1749012018       -0.6395457143
 H        -5.8634956554        6.6930969866       -1.3252718736
 H       -11.2909930913        7.6768036597       -3.5593774371
 H       -11.4230318964        6.0012222591       -4.1538872317
 H       -11.4281491621        6.3152336511       -2.3137132100
 H        -9.4883048831        9.3805159578       -3.5293051579
 H        -8.4571201701        9.3460431221       -2.0324351004
 H        -9.9825225738        8.8060871349       -1.9243339306
 H        -7.3382511956        7.5094595032       -4.7411576833
 H        -7.2227988110        8.9654729870       -3.9439957098
 H        -6.3409456669        7.6310527009       -3.3431710459
 Na       -1.0005999607       -0.4777533320        0.0550152790
