155

 C         9.6841224542       -4.1980860987        5.7391786370
 C         8.4639542191       -3.8130919788        4.8818548748
 C         8.4883487330       -2.9620090205        3.4917381851
 C         8.3214785464       -4.0172548696        2.3248377643
 C         6.9942967778       -4.7192912119        2.1027368531
 C         7.2959004234       -1.9672706518        3.3761348306
 C         9.8403180282       -2.3089377604        3.4771994169
 O         7.3796516970       -4.1879147233        5.1916115519
 O         9.2542265420       -4.1735827287        1.5317125792
 C         6.6170453787       -4.8740225164        0.5769797890
 C         5.8637454971       -3.6189380080        0.0752776052
 C         6.7153064778       -2.4774946505       -0.9874422478
 C         5.9343759731       -1.1992905433       -0.8580108875
 C         4.3974173019       -1.1910594591       -1.4330651666
 O         4.6691653734       -3.4759188419        0.3047830605
 O         6.3719353106       -0.1990343378       -0.2921944422
 C         8.2011483384       -2.1858681145       -0.5898267251
 C         6.4908005129       -3.0999765342       -2.4329260729
 C         3.8043578303        0.1452361264       -1.1150899868
 C         2.2554623323        0.1051620039       -1.0255870241
 C         1.4759471351        0.4457152586       -2.3905908988
 C         0.5496324231       -0.8107115826       -2.7579528923
 C         0.7916009886       -1.7894008833       -3.8390566826
 C         0.6272737675        1.7202840854       -2.0783598187
 C         2.3790984937        0.7335524485       -3.5914123806
 O         1.6719262325        0.0229834077        0.0109272031
 O        -0.4060853725       -1.0276525978       -2.0732195573
 C         0.2329100726       -3.1913299876       -3.6905797183
 C         1.3828034639       -4.2239143218       -3.6004330869
 C         0.9760206019       -5.6133064033       -3.0005060758
 C         0.1286873233       -5.5431349563       -1.7398139653
 C         0.7439673893       -5.2675282183       -0.3553252561
 O         2.4659022386       -4.0963888954       -4.0503936329
 O        -1.0868503635       -5.4945106785       -1.8940851877
 C         0.2409916921       -6.2614610508       -4.1747779056
 C         2.2691952131       -6.4153978974       -2.7163828734
 C        -0.3513869524       -5.2865298797        0.7044998833
 C        -1.1080106263       -3.9309712609        0.8113787258
 C        -2.6856231455       -3.7690608455        0.7386395536
 C        -3.0332347982       -2.4363889360        1.7102788519
 C        -4.5299102451       -2.1158339820        1.9916490283
 C        -3.1001293617       -3.4818630298       -0.7226162156
 C        -3.4567512817       -4.9223672491        1.3378418069
 O        -0.3327633676       -2.9983709438        0.8289584578
 O        -2.1907169048       -1.7199291974        2.2087433343
 C        -4.8443616651       -0.6710238890        1.9307727577
 C        -4.0422464460        0.0278606979        0.7611403327
 C        -3.9054366117        1.5688429825        0.8644026096
 C        -2.5843605271        2.0066906906        1.3960805268
 C        -2.4391361348        3.1581253266        2.4183516648
 O        -3.3474812663       -0.5791893268       -0.0318037121
 O        -1.5288941255        1.4735289440        1.0825102484
 C        -3.9850542922        2.2615327584       -0.5843902547
 C        -5.1108282421        2.1424645283        1.7489421257
 C        -2.5799004287        4.5635184406        1.6891889025
 C        -3.5184543742        5.5419535225        2.4063621470
 C        -4.0952555746        6.7335950355        1.6156613658
 C        -5.0280106586        6.1481138730        0.5679285563
 C        -6.3819950312        6.7034367581        0.3268869670
 C        -4.7394436096        7.9188611389        2.4699669556
 C        -2.8758291160        7.2391421973        0.8195037937
 O        -3.6651463174        5.5069266440        3.6215256271
 O        -4.7424869735        5.1808882201       -0.1677187171
 C        -6.6385175603        6.7166957318       -1.2705430864
 C        -8.1293790522        6.9004234117       -1.6305307316
 C        -8.6443721223        7.8919153166       -2.7545553245
 C        -9.8819350829        7.1034860638       -3.4641071132
 C       -11.2217631777        6.9343802007       -2.7180567597
 O        -8.8735382498        6.2479257626       -0.9427147482
 O        -9.7003045225        6.4268435549       -4.4297233664
 C        -9.0668539257        9.3050532590       -2.1368615269
 C        -7.4845980319        8.1424544468       -3.8502374025
 H        10.6710078096       -3.8482227900        5.4722597014
 H         9.4066411602       -3.9046738765        6.7809398934
 H         9.9284061585       -5.3291592827        5.7347715133
 H         6.8815470008       -5.7264991958        2.5143118770
 H         6.1967384883       -4.1380593891        2.6081129167
 H         6.4083233725       -2.4543486933        3.6711090594
 H         7.1711796539       -1.8288147621        2.3355401383
 H         7.5219480993       -1.0154574668        3.8362074478
 H        10.5447646334       -3.0482003283        3.7754309699
 H        10.0251641725       -1.7329217682        2.4888108135
 H         9.8764794759       -1.5715617349        4.3433397933
 H         7.5334442727       -5.0553647154        0.0462166896
 H         6.0179781277       -5.7584593306        0.4689211159
 H         4.2739969639       -1.4777916178       -2.5280363411
 H         3.8470647577       -2.0100130646       -0.9883797157
 H         8.2712544610       -1.4163482780        0.1958189259
 H         8.5293897410       -1.5925826847       -1.4229572120
 H         8.8106079560       -3.0749133881       -0.4324179651
 H         7.2404506759       -3.8875797820       -2.5301834645
 H         5.5921417271       -3.6788751973       -2.6127717173
 H         6.5624465569       -2.4050860837       -3.2336614971
 H         4.0476271745        0.9648189845       -1.8695111728
 H         4.1661194236        0.4883215007       -0.1622176633
 H         0.3048051289       -1.3375951330       -4.7311203489
 H         1.8710546200       -1.7195567182       -4.0905386476
 H         0.2555000678        1.7719219268       -1.0584119846
 H        -0.2478595452        1.8595478475       -2.8199268132
 H         1.2660420543        2.5918925878       -2.2337904030
 H         3.1610258496        1.4674653327       -3.3339783333
 H         2.9813686579       -0.1587329893       -3.7919238642
 H         1.7203823848        1.1450112223       -4.3028455683
 H        -0.5782962628       -3.2540409687       -2.9442840408
 H        -0.2566393268       -3.5135806402       -4.5627097518
 H         1.5420070642       -5.9574762360       -0.0477716497
 H         1.2353198677       -4.2540281869       -0.5844828795
 H         0.4195931018       -7.3790868838       -4.1009556136
 H         0.6560346491       -5.9779962935       -5.1556920563
 H        -0.7711373197       -5.8733445270       -4.1293955194
 H         2.8174477597       -6.5326937603       -3.5875567712
 H         2.9948438003       -5.7892958922       -2.1897191123
 H         2.1801879891       -7.3926260057       -2.1043005929
 H         0.2069085239       -5.2190977412        1.7037994409
 H        -0.9058788371       -6.2745300516        0.6555382988
 H        -5.1209627827       -2.6276220202        1.1872219447
 H        -4.8737477734       -2.5992798326        2.9673108123
 H        -2.4037741102       -2.7993670014       -1.1617038562
 H        -4.0672082762       -3.0889018735       -0.6745224335
 H        -3.0666917524       -4.4130937874       -1.3353557937
 H        -3.4275438776       -5.0274363411        2.4262964928
 H        -4.4922418946       -4.8058985129        1.0869624390
 H        -3.2632871412       -5.8815556823        0.8729710171
 H        -5.9442216094       -0.5590936056        1.8267490182
 H        -4.7054330597       -0.2838944338        2.9813461390
 H        -3.1220635549        3.0693045277        3.2717348661
 H        -1.4819149628        3.1205900077        2.8766319624
 H        -4.9272812062        1.9810081820       -1.0040807757
 H        -3.1821367610        1.7305565690       -1.2157978688
 H        -3.9575638708        3.3330566272       -0.4286403304
 H        -6.0355429655        1.6844780339        1.4237434600
 H        -4.9753780629        1.7938341410        2.7651877584
 H        -5.0767555767        3.2112298591        1.3952868281
 H        -2.9846327552        4.4499299003        0.6367212952
 H        -1.6633312644        4.9859175611        1.7913404158
 H        -7.2328182966        6.0728008918        0.6918800409
 H        -6.6872159801        7.7474624318        0.8259314039
 H        -4.0150978205        8.5121949618        2.9939624637
 H        -5.4976951796        7.4990673311        3.1308108690
 H        -5.2344649313        8.6744520790        1.8389521891
 H        -2.6201977142        6.5266686179       -0.0650802171
 H        -3.0002792463        8.1066815600        0.2273976846
 H        -2.0898851441        7.5019847606        1.4920979148
 H        -5.9207922494        7.4120679466       -1.6833853773
 H        -6.4751648496        5.7168970532       -1.6599047983
 H       -11.6990807592        7.9271287034       -3.0330376364
 H       -11.8869614622        6.1573336843       -3.1358736042
 H       -11.0624904271        6.8780947077       -1.6342223045
 H        -9.4000117465        9.9753673448       -2.9692009887
 H        -8.2696553176        9.8014824000       -1.5534774576
 H        -9.9056809306        9.2453407884       -1.4514728331
 H        -7.6376600965        9.1030308086       -4.2840228290
 H        -6.4564341514        8.1217734509       -3.5291867101
 H        -7.6076139622        7.3945736723       -4.6693250121
 Na       -0.8378710930       -0.7243951648        0.2172645113
