155

 C         6.2975358279        0.7021773665       10.1470960321
 C         6.1644353812        0.7452180108        8.6184982701
 C         6.6807686918       -0.4068608291        7.7046592167
 C         5.3377288650       -0.8998985984        7.0248755006
 C         4.8953151585       -0.2973181958        5.6814477316
 C         7.6606798143        0.1507823422        6.5720592770
 C         7.3945965633       -1.4703943371        8.5102818926
 O         5.6706814022        1.7547112981        8.1574310358
 O         4.7062954682       -1.8102294573        7.5045413813
 C         3.5290872664       -0.9195598654        5.3149290902
 C         3.8255744860       -2.0347341899        4.3539065009
 C         2.9559666266       -3.3601564123        4.3421998610
 C         1.5037493229       -2.9424530943        3.8535107929
 C         0.5410191543       -4.1411724576        3.2294802361
 O         4.6182230160       -1.9340457624        3.4038081493
 O         1.0036057021       -1.8375945025        3.9099693178
 C         3.5498003122       -4.3681389246        3.2857767508
 C         2.8765589592       -4.0080406334        5.7470724774
 C        -0.8868601812       -3.7200613214        2.8894492876
 C        -1.1508373894       -2.4309928066        2.1626427247
 C        -2.3472278184       -1.5239654072        2.5197147455
 C        -1.6835446623        0.0363684280        2.7175543556
 C        -1.3804867380        0.4898781509        4.1810626194
 C        -3.3903336919       -1.4463375093        1.4012256437
 C        -3.1498042576       -1.9889505042        3.7684479622
 O        -0.3321271932       -2.2298596186        1.2954084738
 O        -1.5464377657        0.8184736148        1.7561956240
 C        -0.7893726980        1.8750051303        4.2689035303
 C         0.6602472915        2.1302989074        4.0109936627
 C         1.3644719876        3.5013543234        3.8027878296
 C         1.7440817913        3.5219095295        2.2552919401
 C         2.8676253264        2.6134682512        1.6917793497
 O         1.3768696848        1.1195399426        3.9147863927
 O         1.1321937957        4.1358623933        1.4207340182
 C         0.4990470666        4.8479450791        4.0384741893
 C         2.6218912790        3.5443242004        4.6625271989
 C         2.9195732221        2.4770945816        0.2149581289
 C         2.1015163850        1.2620904838       -0.2868009308
 C         2.1018518274        0.6350278253       -1.6935184237
 C         0.5707895560        0.7618564244       -2.1950934508
 C        -0.1247560687        2.2335154309       -2.1062409117
 C         3.0998617782        1.1954061234       -2.7537684603
 C         2.3960642391       -0.8393799308       -1.4712970175
 O         1.1853398875        0.8223757996        0.4185673485
 O        -0.1000594738       -0.1782851130       -2.4819003808
 C        -1.5782508280        2.4071673566       -2.6247319720
 C        -2.7276737644        1.5322149558       -2.0769511769
 C        -4.2068865741        1.7782352790       -2.4628902785
 C        -5.0372220857        0.4176707318       -2.6599478277
 C        -4.6311933356       -0.5672515645       -3.7182089362
 O        -2.4089495663        0.6056717043       -1.3424371938
 O        -6.0305952565        0.2428092211       -2.0393129850
 C        -4.7722403546        2.6963425662       -1.3956722303
 C        -4.4126920876        2.5359326301       -3.8926682515
 C        -5.6901638506       -0.5937528957       -4.7532853774
 C        -5.6174810211       -1.8749368056       -5.6395569888
 C        -6.4367908352       -1.9060494776       -6.9975042117
 C        -6.0703638041       -0.7509236106       -8.1442011294
 C        -4.8300073094       -0.9118942459       -8.9950468766
 C        -6.3895207993       -3.3132805111       -7.6165220591
 C        -7.8928496581       -1.7233398635       -6.5231237734
 O        -5.2053333961       -2.9354222894       -5.1816863579
 O        -6.8038606939        0.1555649318       -8.3256602765
 C        -3.5343154565       -0.6671753899       -8.1805313402
 C        -2.3178729696       -0.1066139247       -8.8940826554
 C        -1.3441204010        0.6350059360       -7.9772583902
 C        -2.0488691446        1.6090546798       -7.0012446097
 C        -2.6372743099        2.8096644214       -7.6678166971
 O        -2.1769741349       -0.2716724803      -10.0760599802
 O        -2.1033674252        1.4716818480       -5.8177807986
 C        -0.6087662356       -0.5476471293       -7.1740873002
 C        -0.2467297510        1.3483946795       -8.8087288151
 H         5.7421006955       -0.1776181709       10.5891439945
 H         7.3161307742        0.6087695340       10.4857983265
 H         5.8888504748        1.6317284851       10.5509524627
 H         4.9499375475        0.8558202510        5.7003863608
 H         5.6735455755       -0.5441903388        4.9536375837
 H         8.5615785426        0.4813813189        7.0409093250
 H         7.1796072980        0.9700509740        6.0631268243
 H         7.9034987463       -0.6756727691        5.8979548897
 H         6.6778930820       -2.1212974836        8.8796317219
 H         8.1082752566       -2.1222711464        7.9525830561
 H         8.0613583186       -1.0722460365        9.2431899774
 H         3.2137419027       -1.2720151705        6.2331050178
 H         2.9020045294       -0.1556426640        4.8525359424
 H         1.0657677082       -4.4535659163        2.3126029973
 H         0.5263912093       -4.9488230811        3.9090195370
 H         3.4729291798       -5.3865654760        3.6068070703
 H         4.5272460414       -4.0229158689        3.0590225922
 H         2.9631476238       -4.3875998785        2.3565016284
 H         3.7650544140       -3.7287980328        6.2897695864
 H         2.1477334318       -3.4071832584        6.4086844490
 H         2.5228507930       -5.0814664882        5.6880923537
 H        -1.5247223498       -3.8288563010        3.7460379827
 H        -1.2063261684       -4.3806941699        2.1142170869
 H        -2.2087635184        0.4241877556        4.8560215882
 H        -0.7166587180       -0.1815418287        4.5770501720
 H        -4.3551029276       -1.0639719667        1.7179834926
 H        -3.6581547258       -2.5086007986        1.0674298130
 H        -3.1057379233       -0.7632434629        0.5740225854
 H        -3.8089325201       -2.8542529685        3.5237413977
 H        -2.5849515474       -2.3486778796        4.6874236878
 H        -3.8354299959       -1.1441728988        4.1071563256
 H        -1.4754917471        2.5557821073        3.7417889004
 H        -0.9828723771        2.2501186033        5.2809604377
 H         3.9169084502        2.9003358554        2.0196358140
 H         2.8753557288        1.6250828195        2.1122013825
 H         0.2135890276        5.0113163434        5.0961284760
 H        -0.4254110829        4.8832395035        3.4902965189
 H         1.2076744529        5.6467380316        3.8478438666
 H         3.5541549020        3.8492486935        4.1254198145
 H         2.5006263586        4.1053497709        5.5798186340
 H         2.8281318121        2.5475982100        5.0869900726
 H         3.9506050118        2.4316874697       -0.2448882025
 H         2.4039127636        3.3584146411       -0.1759737593
 H        -0.0452434860        2.4162750706       -1.0472659722
 H         0.4835190929        2.9914910120       -2.5956902673
 H         3.8569803091        0.4542674977       -2.9337823263
 H         3.7424890110        2.0346323498       -2.3724329754
 H         2.6339030950        1.4793318897       -3.6722272416
 H         3.3622934542       -1.1104271315       -0.9803447236
 H         1.7012198878       -1.2823576846       -0.8062651639
 H         2.4450010731       -1.3051346385       -2.4297251505
 H        -1.9336643487        3.4149594897       -2.4027636288
 H        -1.5073430337        2.2889257675       -3.7222782135
 H        -3.7315113415       -0.2267390434       -4.2307668180
 H        -4.3417898217       -1.5502505363       -3.2371781594
 H        -5.8298163561        2.9791682361       -1.3745105340
 H        -4.2243936726        3.6045223194       -1.2118131769
 H        -4.5970442654        2.2077636500       -0.3854474014
 H        -4.1144268985        3.6513487542       -3.7853214362
 H        -3.9031595699        2.0760454255       -4.7191567098
 H        -5.4666264408        2.4560739003       -4.2025524679
 H        -5.5885302442        0.3326492337       -5.3116459193
 H        -6.7412969799       -0.7093948256       -4.3062760317
 H        -4.6121294941       -1.9932877585       -9.2570751344
 H        -4.8184978861       -0.2572318739       -9.8808069645
 H        -6.7893490305       -4.0753586868       -6.9919671543
 H        -5.3674540072       -3.5924306294       -7.6934852993
 H        -6.9680757867       -3.2428243066       -8.5080571517
 H        -8.2042103319       -2.4247248847       -5.7616425931
 H        -7.9847634719       -0.7086216118       -6.0521692041
 H        -8.5321213434       -1.8843212724       -7.3887759971
 H        -3.7281852184       -0.0252910933       -7.3550509629
 H        -3.2770949220       -1.6205692644       -7.7071999355
 H        -1.7867671607        3.5223636174       -7.8759827095
 H        -3.1528401433        2.6183456161       -8.6245624994
 H        -3.1944744353        3.3476963152       -6.9119694069
 H        -0.5443673483       -1.3824476149       -7.8829804720
 H        -1.1501596930       -0.7255045889       -6.2456513991
 H         0.3699769124       -0.1174716192       -6.8538257475
 H        -0.5430739629        1.3348083151       -9.8156708265
 H        -0.2247721911        2.3638862583       -8.4915866824
 H         0.6863520886        0.8404341145       -8.7408838027
 Na       -0.7216308216       -0.4108796336        0.0450897253
