155

 C         8.9318448328       -4.1988855174        3.9881352791
 C         8.3436734516       -2.8690283088        3.5181051231
 C         9.0298850035       -2.0587250370        2.3419229701
 C         8.7605082081       -2.9740794119        1.0889998152
 C         7.3435668983       -2.8415100977        0.3803285917
 C         8.6262487597       -0.5571075936        2.2905847791
 C        10.5971688615       -1.9971893295        2.6012392055
 O         7.1783213665       -2.5589388839        3.7833338952
 O         9.4727278139       -3.9062638750        0.8634083560
 C         7.0562315328       -4.1627549056       -0.1001031531
 C         5.7913659360       -4.3452837787       -1.0514165022
 C         5.7649689079       -3.6013319796       -2.4496942776
 C         5.0022252068       -2.1956991429       -2.2451603853
 C         3.6703516325       -2.2356612524       -1.5976689094
 O         4.9885305964       -5.1803988960       -0.7076689456
 O         5.4076876779       -1.1681864749       -2.7829976729
 C         7.0016587148       -3.5347803766       -3.3248335796
 C         4.5477784380       -4.3719737840       -3.1775804913
 C         3.2981499087       -0.7644878817       -1.3165665969
 C         1.7607064086       -0.5674406028       -1.3991653176
 C         0.9353283653       -0.4985213065       -2.8295148406
 C        -0.2160272973       -1.5781374129       -2.9774591118
 C        -0.1692114591       -2.4853923780       -4.2470225035
 C         0.2233443959        0.9020790438       -2.8645855840
 C         2.0473777372       -0.5899341644       -3.9154539327
 O         1.1558437477       -0.6092879286       -0.2966314837
 O        -1.1277494148       -1.7046957625       -2.1892556871
 C        -0.8016839891       -3.7540177973       -3.8823300953
 C         0.2443642300       -4.7883009549       -3.3675909247
 C        -0.3509381116       -6.1545641921       -2.8428617783
 C        -0.5991553605       -5.8248702346       -1.2843313326
 C         0.5736639971       -5.8847519356       -0.1935866270
 O         1.3701508812       -4.5109549899       -3.1983031917
 O        -1.7278505861       -5.7191760757       -0.9488632459
 C        -1.7232546133       -6.5181951826       -3.3834628241
 C         0.6273872458       -7.3513487320       -3.0113446225
 C        -0.1298053132       -5.7576295660        1.1858044305
 C        -0.7628415788       -4.2923502290        1.5221829960
 C        -1.3981661911       -4.0647536459        2.8616859944
 C        -1.7274266641       -2.5360697647        3.1186834289
 C        -3.0297451975       -2.1861054812        3.7959536493
 C        -2.6709681060       -4.9776025927        3.1572350926
 C        -0.4316237031       -4.4219715501        4.0625082337
 O        -0.5556109202       -3.4628526040        0.6597661907
 O        -0.7971449302       -1.7723831465        3.0462034929
 C        -3.2903440151       -0.6937235967        3.8418181379
 C        -3.2098884219       -0.1132061219        2.4094335412
 C        -3.2912010473        1.3920776662        2.1218562577
 C        -2.0521881534        1.8858129921        1.1733355980
 C        -1.8546757843        3.4476942527        1.0047071765
 O        -2.9125360542       -0.9122419189        1.4701912247
 O        -1.3120985512        1.1741850429        0.5887316223
 C        -4.5956001072        1.5094220020        1.2248644308
 C        -3.3552713086        2.2341666892        3.3909577928
 C        -2.9256137201        4.1847749211        0.1489133678
 C        -3.2722988140        5.5007484182        0.8941013473
 C        -2.9823771477        6.9821086752        0.2298812771
 C        -4.1266026325        7.5162940958       -0.7188204849
 C        -5.5115563656        7.6551120506       -0.1748500529
 C        -2.8000560887        7.8801129910        1.5231516113
 C        -1.6254215587        6.9897037319       -0.5988414902
 O        -3.7074158141        5.4509664948        1.9994746115
 O        -3.8526985500        7.8075507798       -1.9129686336
 C        -6.5487483629        8.1819864703       -1.1770320400
 C        -7.9811158331        8.1234524121       -0.6852857306
 C        -9.2153340394        8.6914529955       -1.5834529336
 C       -10.5286624779        9.0736864764       -0.8694768188
 C       -10.4379719999        9.9869733629        0.4221427037
 O        -8.3063582950        7.5328929151        0.3306400669
 O       -11.5910254924        8.8204965540       -1.3490533732
 C        -8.7438257715       10.0959770820       -2.2916273968
 C        -9.4334317644        7.6443603454       -2.8020729322
 H         8.1813452159       -4.8206238237        4.5357898389
 H         9.3096098962       -4.7041851767        3.1730270331
 H         9.8007090162       -3.9786035478        4.6298849979
 H         6.6261880127       -2.5588392103        1.1556527646
 H         7.3029844638       -2.0258899536       -0.3281319155
 H         7.6693614989       -0.3795470009        1.9087835052
 H         9.2916136214        0.0826409996        1.7421615686
 H         8.7304445352       -0.2346649301        3.3186197615
 H        11.0337627400       -3.0132356060        2.8726649475
 H        11.0771407298       -1.5834315724        1.8113369608
 H        10.9252880020       -1.3816976756        3.3518146290
 H         7.9037019044       -4.5225402311       -0.7081291230
 H         6.9233099377       -4.9601364708        0.6301759923
 H         2.8998253736       -2.6735841060       -2.1659162024
 H         3.8537928845       -2.8143177612       -0.6866716071
 H         7.8519970201       -2.9457173214       -2.9435589454
 H         6.8266720941       -3.0727818040       -4.2607830559
 H         7.4362646815       -4.5411935316       -3.5146427431
 H         4.8873418968       -5.1703523883       -3.7902053790
 H         3.9638343931       -4.8745480052       -2.3743656724
 H         3.8895444891       -3.6751156536       -3.6758949369
 H         3.7825051997       -0.0811392075       -2.0282294787
 H         3.6725890737       -0.3869013846       -0.3282129871
 H        -0.6765948550       -2.0756410644       -5.1234877683
 H         0.9019411726       -2.6245591868       -4.4750190601
 H         0.7441486196        1.4104980137       -3.6289736286
 H         0.3550065359        1.4466485838       -1.8960833348
 H        -0.8062299851        0.7854896599       -3.1432984656
 H         2.8831382140        0.0164770571       -3.5676537065
 H         2.4820472254       -1.5878165649       -3.9138234612
 H         1.5740767513       -0.4080767387       -4.8301744650
 H        -1.4509687461       -3.5107276226       -3.0457192168
 H        -1.4869878468       -4.1863055958       -4.5947411000
 H         1.1359208609       -6.8200909602       -0.1907238985
 H         1.2311287538       -5.1356706735       -0.5342251554
 H        -2.5059143338       -5.8353115503       -2.8968378906
 H        -1.9115973825       -7.5342468749       -3.0967875130
 H        -1.7731426060       -6.4756339803       -4.4742232257
 H         0.4563716128       -7.6520218457       -4.0408244377
 H         1.7124547899       -7.3124751830       -2.8753983792
 H         0.3055656666       -8.0916698744       -2.4059865156
 H         0.5097731333       -6.0382451175        1.9714834021
 H        -0.9657804562       -6.4868739478        1.1216005042
 H        -3.8055697470       -2.5790303151        3.1879909737
 H        -3.0475879939       -2.5226768302        4.7861357199
 H        -3.4594544816       -4.8868988036        2.4581281395
 H        -3.1880026115       -4.6002225869        4.1173748490
 H        -2.3838933080       -6.0386364077        3.1378952386
 H         0.3142639053       -3.6124710458        4.2228116860
 H        -1.0318603874       -4.5075462137        4.9872314148
 H         0.0740562658       -5.3709638189        3.8379116165
 H        -4.3371383124       -0.5789341369        4.2716381603
 H        -2.6917553850       -0.0754052692        4.4493789681
 H        -1.7953419573        4.0540090068        1.9081455002
 H        -0.9673149887        3.5917215749        0.4506239636
 H        -5.4399797208        1.8752436198        1.7606522393
 H        -5.0416654893        0.6182023593        0.7110336245
 H        -4.4344345867        2.2877504318        0.5061177032
 H        -4.0903431119        1.7668507969        4.1309170498
 H        -2.4534880520        2.1799338292        4.0660134021
 H        -3.6063702495        3.2643572650        3.1426320067
 H        -4.0129724769        3.7315412532        0.2680127448
 H        -2.8444922687        4.0482991850       -0.9174125635
 H        -5.8008969739        6.5976948519        0.1299995039
 H        -5.4999929335        8.2328815748        0.8144427970
 H        -2.0404012763        7.3759211328        2.1120579354
 H        -3.7624333196        7.9189643920        1.9899388362
 H        -2.4566745344        8.9191920360        1.4333366070
 H        -1.7684458695        6.2960713820       -1.4353345452
 H        -1.5203676287        8.0187765240       -0.8942593045
 H        -0.8517940268        6.6294847851        0.0928900889
 H        -6.2238872466        9.1629156670       -1.5459357134
 H        -6.4449162517        7.5874927100       -2.0264552306
 H       -10.2875479990       11.0136909616        0.0155704316
 H       -11.4984965086       10.0845427234        0.8363450312
 H        -9.6752334094        9.7390356341        1.2155585984
 H        -9.4770595836       10.7496119008       -2.8413096581
 H        -8.0749651989        9.8241386821       -3.1233163736
 H        -8.1611643572       10.6436908751       -1.5816232124
 H        -8.5195383083        7.6959819976       -3.3617879340
 H        -9.6128803537        6.5775068965       -2.5442349961
 H       -10.2145124886        7.9769928627       -3.4733212249
 Na       -0.9971249272       -1.1092475847        0.2986008741
