155

 C         9.0756572651       -3.5520829613        4.0049460503
 C         8.3467102179       -2.5895345080        3.0695043795
 C         9.0934522408       -2.0518322169        1.8139233360
 C         8.8746286787       -3.1002664332        0.6854583247
 C         7.4185189397       -3.5078161656        0.4578350310
 C         8.3897863966       -0.6503555675        1.4180289762
 C        10.6538873908       -1.8869532245        2.1105555704
 O         7.3353186636       -2.0812086959        3.4002442967
 O         9.7778217038       -3.7151583133        0.1784763168
 C         7.0187020417       -3.0973570186       -0.9160744143
 C         5.6760721651       -3.9797781822       -1.2542163753
 C         5.1728416978       -4.2121363699       -2.7961871072
 C         4.5829037475       -2.8184653438       -3.1547322705
 C         3.2631078839       -2.4556797382       -2.5197876251
 O         5.0077196014       -4.5529845047       -0.4418319269
 O         5.2694583063       -2.0000596764       -3.6918094505
 C         6.4128400881       -4.5093458746       -3.5791153852
 C         4.2164662628       -5.4474369811       -2.6878171226
 C         2.9112819574       -0.8643753836       -2.5093708998
 C         1.5169308748       -0.7100099930       -1.8977813030
 C         0.2922336050       -0.3190878987       -2.8937737856
 C        -0.6182298214       -1.6875192000       -2.9326460435
 C        -0.5487571769       -2.7765039883       -4.0828174730
 C        -0.4877326334        0.8900829056       -2.1268157465
 C         0.5680418290        0.1670555432       -4.2867781873
 O         1.2251505396       -1.0069483508       -0.7559199673
 O        -1.3715452491       -1.7191297294       -2.0332087978
 C        -1.3942216616       -4.0007977029       -3.4679253292
 C        -0.4666599327       -4.9180885373       -2.7524501597
 C        -0.9866241187       -6.3121690067       -2.3307187417
 C        -1.3727073872       -6.3624503300       -0.8147363076
 C        -0.2332696207       -6.0636747520        0.1239582401
 O         0.6746225933       -4.5876163588       -2.4451649542
 O        -2.4722130827       -6.5665054612       -0.4289477613
 C        -2.3123542835       -6.7989028631       -3.0350443960
 C         0.0755576827       -7.4450810133       -2.6773903074
 C        -0.5661259300       -5.7534922325        1.5867006687
 C        -0.5430808835       -4.2295056946        1.7335752426
 C        -0.0859069998       -3.6721879227        3.1211564582
 C        -0.6723070346       -2.1042284619        3.1541758967
 C        -2.0218602777       -1.9520449883        3.9032445427
 C        -0.6679490482       -4.5172851914        4.2381037241
 C         1.5209381369       -3.8083933346        3.2691313598
 O        -0.8505177568       -3.4693301304        0.7915799078
 O        -0.0637607455       -1.1652267477        2.6993450342
 C        -2.6417186715       -0.5841880774        3.6386096314
 C        -3.1052081076       -0.3992019676        2.0823036573
 C        -3.7127277776        0.8685102263        1.6300565065
 C        -2.5452527025        1.9794415841        1.3893350512
 C        -2.8189985416        3.4789241202        1.6828423366
 O        -2.9712979464       -1.3455872091        1.3163098536
 O        -1.5047842029        1.5784280677        1.0048290018
 C        -4.3263956061        0.7600934976        0.1111145763
 C        -4.8901919159        1.2648735649        2.5874522491
 C        -2.7004185985        4.4257670573        0.4938458411
 C        -2.9664267028        5.9773833789        0.9046769277
 C        -2.5082680276        7.1395365038       -0.0234802405
 C        -3.7580451811        7.5229884581       -0.8845809631
 C        -5.0920891116        7.6642659071       -0.2103463432
 C        -2.1108682675        8.4049837295        0.8544295306
 C        -1.3525953720        6.7784398550       -0.9956554290
 O        -3.5781819981        6.2734406836        1.9480006625
 O        -3.6088199139        7.7754950393       -2.0534484385
 C        -6.2294560687        8.3652075964       -1.0099411423
 C        -7.5642042825        8.6049907728       -0.2463273413
 C        -8.9588889180        8.7702335369       -0.9816161715
 C       -10.0136988452        9.3829894897        0.0842641534
 C        -9.7531457376       10.7923394268        0.5428335309
 O        -7.5243569396        8.5153156231        0.9595979299
 O       -10.7296811622        8.6986185126        0.7090685446
 C        -8.8623379276        9.5956098671       -2.2783666430
 C        -9.3801680389        7.3087781995       -1.3584018897
 H         8.3762244702       -4.0241502364        4.6078932255
 H         9.7106088209       -4.2705593959        3.4127764378
 H         9.6266704552       -2.9454230991        4.6874332793
 H         7.3754747583       -4.6225636908        0.3774106450
 H         6.7710550783       -3.0869016147        1.2291290295
 H         7.3895900495       -0.7744715993        1.0431876813
 H         9.0346500795       -0.3367389013        0.5739766977
 H         8.4168341588        0.1768446759        2.0743424115
 H        11.1252379950       -2.8048211315        1.8850828111
 H        11.2424825035       -1.0778346007        1.5098138317
 H        10.7997786739       -1.6413268421        3.2234700034
 H         6.7600125452       -2.0482996469       -1.1258301061
 H         7.7294088068       -3.4763410653       -1.6435533801
 H         2.4241512171       -2.9781879384       -3.0472584863
 H         3.1331755414       -2.9395002812       -1.5408235797
 H         7.0972446155       -3.7091988534       -3.7364856687
 H         6.0835221662       -4.6302397936       -4.6682548435
 H         6.8613928781       -5.4761088187       -3.2869378180
 H         4.4271692484       -6.0489094339       -3.5981227303
 H         4.3925761415       -6.0748738605       -1.8646768993
 H         3.1453010692       -5.2503539717       -2.7344675547
 H         2.8750028750       -0.4214152063       -3.4922963916
 H         3.5838713503       -0.3233374206       -1.8965672522
 H        -1.0742406998       -2.4143893867       -5.0539723643
 H         0.4688537545       -3.0846997153       -4.2497680561
 H        -0.0433864082        1.8728294512       -2.4587762256
 H        -0.3823917137        0.8510339556       -1.0678317848
 H        -1.5533103587        0.9461168746       -2.3836738990
 H         1.0936264604        1.1233371219       -4.3915734869
 H         1.1664333379       -0.5341842137       -4.9001115365
 H        -0.3728899745        0.1650792606       -4.7758261596
 H        -2.0641969053       -3.6476052457       -2.6793180137
 H        -2.0926112583       -4.4602581129       -4.2358502872
 H         0.6070324253       -6.8133990634        0.2008345843
 H         0.2463082990       -5.1338973515       -0.2451594581
 H        -3.2297581082       -6.2450348229       -3.0390924466
 H        -2.4927739061       -7.8420548090       -2.6197896331
 H        -2.1326900216       -6.9172263519       -4.1130230240
 H         0.2712339927       -7.4354408515       -3.7685952079
 H         1.0657961270       -7.2954567079       -2.2780953801
 H        -0.3572137344       -8.4602340053       -2.2751600971
 H         0.1428471042       -6.1985095764        2.2583008109
 H        -1.5582205202       -6.1493822031        2.0291672922
 H        -2.6601652221       -2.8426314332        3.6488455877
 H        -1.8424684193       -2.0799592969        5.0187751156
 H        -1.7366742033       -4.8144771941        4.3597169256
 H        -0.4855896870       -4.1609584760        5.1831048531
 H        -0.1460764924       -5.4233234378        4.2155080343
 H         2.1322632294       -3.6084730086        2.4167431046
 H         1.8173531421       -3.0556369652        3.9803325984
 H         1.7914324812       -4.8060896472        3.7238184019
 H        -3.5477650265       -0.2901999136        4.2407101706
 H        -1.8804222987        0.1455873812        3.7933851317
 H        -3.7979567526        3.6577869469        2.0716756086
 H        -2.0032339282        3.7068528620        2.4973366203
 H        -3.6405158481        0.2368599863       -0.5800597596
 H        -4.6563409832        1.7138099900       -0.2762916418
 H        -5.2876634025        0.2341959634        0.2565798090
 H        -5.5552993207        0.4791513767        2.4919249425
 H        -4.6277611752        1.3514696094        3.5870463612
 H        -5.2586667344        2.2062115033        2.2229020692
 H        -3.4459610057        4.0553328750       -0.2207650582
 H        -1.5785356623        4.4302710989        0.2209925616
 H        -5.4517012947        6.6530908993       -0.0222032161
 H        -5.0370819852        8.1371744586        0.7401284544
 H        -1.0431283250        8.5540593684        1.0985689773
 H        -2.6578906556        8.4172180296        1.8301703091
 H        -2.4595009924        9.3242041707        0.2778597984
 H        -1.5608444602        5.9234081427       -1.6492443509
 H        -1.2665771282        7.6361240821       -1.6685517033
 H        -0.4615538902        6.5292905084       -0.3990630789
 H        -5.8401484697        9.3576111187       -1.3489000678
 H        -6.3157244498        7.8260878394       -2.0248916616
 H        -9.9162172071       11.4390561650       -0.3573923566
 H       -10.3819254624       11.0759051918        1.3792781468
 H        -8.7040050508       10.9876367377        0.7960296005
 H        -9.8983547631        9.7570193102       -2.4539919759
 H        -8.5192294073        9.0481499067       -3.1190782833
 H        -8.2378786706       10.4988501343       -2.1104291309
 H        -8.6433215173        6.8019024411       -2.0891606681
 H        -9.5084869013        6.6661662027       -0.5148687449
 H       -10.3771482427        7.3130014187       -1.8733012593
 Na       -0.6920480548       -1.2583967908        0.3555906896
