155

 C         9.3354476899       -2.4251453886        3.8256461464
 C         8.4458640052       -2.4566374711        2.5239661602
 C         9.0666949405       -1.7748352376        1.1745345023
 C         8.5249435012       -2.7476401313        0.0747395579
 C         7.3647407517       -2.3191002356       -0.8331098308
 C         8.4005380172       -0.3188717732        1.0862901938
 C        10.5618636437       -1.6794634145        1.1190153133
 O         7.3244060051       -2.8758767911        2.5076213720
 O         8.9225077350       -3.8905027485        0.0225022871
 C         6.7888616274       -3.5111154236       -1.7213541014
 C         5.4308411735       -3.9051115555       -1.3360163790
 C         4.6952505974       -4.8058857404       -2.4799640975
 C         3.8629123259       -3.7071396931       -3.2707263216
 C         2.7056992880       -2.9270333864       -2.4764622538
 O         4.9041546873       -3.6517067652       -0.3241494121
 O         4.1889799923       -3.3895168650       -4.3827523137
 C         5.6218505755       -5.5066407931       -3.4621576932
 C         3.6359176686       -5.8374495626       -1.8657289625
 C         1.8413306186       -2.2116903014       -3.5722666183
 C         0.7600469105       -1.4151260812       -2.8615178983
 C        -0.5458190039       -0.8594822827       -3.5393178275
 C        -1.6852983472       -1.6502224393       -2.8880226009
 C        -2.4606325565       -2.6715937997       -3.7047653159
 C        -0.6279508779        0.6200085538       -3.1053145291
 C        -0.3051981236       -1.0074882039       -5.0727437327
 O         0.9739069428       -1.2234293663       -1.6803976143
 O        -2.0576097832       -1.4635320432       -1.7948722485
 C        -2.8941103721       -3.9976843050       -2.8877004527
 C        -1.6290709002       -4.7611076023       -2.4320084735
 C        -1.6433363235       -5.9348779678       -1.3547944962
 C        -1.0820107952       -5.3070807183        0.0502927395
 C         0.4305466036       -5.4535669230        0.3463512216
 O        -0.5864768172       -4.4024529088       -3.0030854242
 O        -1.7571551058       -4.6633052481        0.7774760492
 C        -3.1433883803       -6.3496007925       -1.2050390144
 C        -0.6976780731       -7.0276826986       -1.8190463092
 C         0.7325610932       -4.8293964982        1.7026609286
 C         0.6292328364       -3.2466922524        1.5517331556
 C         1.0220554748       -2.1873123371        2.8595977347
 C        -0.3117394142       -1.1923919394        3.0900431091
 C        -1.4634013910       -1.7866984992        3.8121276245
 C         1.3252418190       -2.9802479909        4.2067807629
 C         2.3307497605       -1.5309681857        2.2656347952
 O         0.3664603714       -2.7433549529        0.5102926764
 O        -0.4649809570       -0.1446571777        2.4888723693
 C        -2.7846162227       -0.9930100192        3.4566629284
 C        -2.9755515985       -0.8445936904        1.9585842981
 C        -4.0047748173        0.2330352533        1.3953307235
 C        -3.2065609900        1.4504713437        0.8456976316
 C        -3.4097720545        2.9553589655        1.3082479409
 O        -2.4928373388       -1.6170240728        1.1749171081
 O        -2.2917985803        1.2671497051       -0.0220775867
 C        -4.7224318806       -0.4162694586        0.2011445501
 C        -4.9553767761        0.5776267094        2.5676940603
 C        -2.6202468379        3.8933576425        0.4350526718
 C        -2.1508249228        5.1957343921        1.0638532192
 C        -2.1252688394        6.4499396455        0.0881634003
 C        -3.5053841410        6.6859912824       -0.4705127400
 C        -4.3445156293        7.9099741227       -0.0874273703
 C        -1.6502015021        7.5778626798        0.9284258303
 C        -1.1922132874        6.0748430310       -1.0273632621
 O        -1.8036672523        5.2720235138        2.1915666678
 O        -3.9596718838        6.0468463821       -1.3824374784
 C        -5.7768801384        7.5164910898        0.2806275548
 C        -6.6290814332        8.7233727128        0.1720644774
 C        -8.2766246444        8.6455358541        0.1895660746
 C        -8.9484696759        9.6187388143        1.3488441735
 C        -8.8624330601       11.1327481143        1.1944997754
 O        -6.0867967264        9.7628602313       -0.0745876762
 O        -9.3620365415        9.0861038040        2.3662354794
 C        -8.7176665814        9.1691302619       -1.1727938637
 C        -8.7519629480        7.1647757704        0.3885563295
 H         8.7931200477       -2.9535306766        4.6574182960
 H        10.2560600712       -2.9481888855        3.6604218871
 H         9.5055018222       -1.3433582986        4.0625725983
 H         6.5241639278       -1.8467299432       -0.3426751323
 H         7.7834493649       -1.6087871775       -1.5265931786
 H         7.4092572385       -0.3727848878        1.4950545070
 H         8.3088562368       -0.1482050401        0.0620914420
 H         9.0391483710        0.4899310294        1.3809257688
 H        10.8423535887       -2.2651146689        0.3387273472
 H        10.8181798808       -0.6597909768        0.7840987543
 H        11.1735202486       -1.9309431283        2.0356837403
 H         6.7612049080       -3.2262936896       -2.7908582897
 H         7.4801617176       -4.3468692408       -1.7283988296
 H         2.1164533096       -3.6502146780       -1.8731268100
 H         3.1718754529       -2.2422785815       -1.8021787572
 H         5.7888358994       -4.8007499417       -4.3480252821
 H         5.1169863297       -6.3323470864       -3.9560741580
 H         6.4941583220       -5.8746877242       -2.8777111663
 H         2.6818311881       -5.5346442705       -2.2713156081
 H         3.7952588451       -6.9104105531       -2.1411338898
 H         3.5303431954       -5.7034825252       -0.7835311327
 H         1.5625666680       -3.0587033912       -4.2904605352
 H         2.5006343076       -1.5255226469       -4.1376634074
 H        -3.4032211520       -2.1510780501       -4.0020547951
 H        -2.0984038663       -3.0524247019       -4.6246598202
 H         0.2377090824        1.1470429727       -3.4667131468
 H        -0.7076704124        0.7054687822       -1.9879623260
 H        -1.5092808116        1.1227114847       -3.4757783777
 H         0.6547113923       -0.6523736480       -5.3524953730
 H        -0.2449727440       -2.0362161439       -5.3500693857
 H        -1.1208201236       -0.5673144107       -5.7151911389
 H        -3.5056204665       -3.6784026076       -2.0590651614
 H        -3.5214728513       -4.6162035944       -3.6606158085
 H         0.5821559442       -6.5091584700        0.4853965983
 H         1.1732350885       -5.1330912302       -0.3764345782
 H        -3.9044245581       -5.6416439895       -0.8472701583
 H        -3.3558064598       -7.1694502791       -0.5537700864
 H        -3.6522680384       -6.6408423351       -2.1440267371
 H        -1.0784151061       -7.5207667046       -2.7482811271
 H         0.1789857902       -6.5333261976       -2.2727819484
 H        -0.5727045912       -7.7091984734       -1.0218251945
 H         1.7934730904       -5.0080950393        1.8903796299
 H         0.0214353032       -5.2589880310        2.4469864737
 H        -1.5217953178       -2.8434697042        3.4951150231
 H        -1.3457711759       -1.7993105435        4.9468735463
 H         0.5090163712       -3.6011897508        4.4082150760
 H         1.3795904491       -2.2744945889        5.0780861239
 H         2.1905729269       -3.5998473993        3.9817855511
 H         3.1939328513       -1.4874911085        2.9918490622
 H         2.6935286581       -2.1299778151        1.4013068143
 H         2.0650000481       -0.5683463110        1.8760886414
 H        -3.7037667086       -1.2065056930        4.0332475676
 H        -2.5754663314        0.0753100207        3.8397950328
 H        -4.5065198154        2.9306910443        1.4316485870
 H        -3.2379249019        2.9284616602        2.3959777445
 H        -4.0224469048       -1.2156098975       -0.0935850561
 H        -4.9147943775        0.2111551488       -0.6762548146
 H        -5.7271231295       -0.6737093439        0.4813647692
 H        -5.6077500169       -0.2429064191        2.8492208528
 H        -4.4922778801        0.8257333757        3.4938926220
 H        -5.5645421845        1.3414347930        2.2830469362
 H        -3.1464568225        4.1203687618       -0.5339602980
 H        -1.8164448039        3.3444602927        0.1204129440
 H        -3.9311135538        8.4189280786        0.7504892308
 H        -4.3573571339        8.6814788616       -0.8341258655
 H        -0.6989242655        7.2065971987        1.4415883544
 H        -2.3847422492        7.8108099678        1.7394441199
 H        -1.4240559697        8.4877001383        0.3433574443
 H        -1.5820906117        5.3326973639       -1.6377610060
 H        -1.0818640778        6.9053059651       -1.7195818944
 H        -0.2374326546        5.6464950350       -0.7899988702
 H        -6.1510628459        6.8044989065       -0.4801134187
 H        -5.8366776836        7.0561476511        1.1801140142
 H        -8.5082382688       11.3570704565        0.2248522011
 H        -9.8177012351       11.5326484215        1.5638624126
 H        -8.1684134421       11.6895972437        1.8395798732
 H        -9.7636590964        9.3274759890       -1.0102548454
 H        -8.6529485158        8.4549539511       -2.0259857957
 H        -8.1153212408       10.0361239204       -1.4197694526
 H        -8.5350792376        6.5036380083       -0.4279477730
 H        -8.4356083387        6.6811716563        1.3813586907
 H        -9.8039852365        7.0957837768        0.4569552586
 Na       -0.6400437640       -0.5964243651       -0.1646923425
