155

 C         6.0064147798        0.9686667306        9.7210192321
 C         6.2119104370        0.8921417570        8.1987154034
 C         6.4510742344       -0.5866272908        7.6046553018
 C         5.0097009883       -1.0051590690        7.0148763379
 C         4.4067962375       -0.2210765883        5.8576380069
 C         7.3941828425       -0.4392460306        6.3641983657
 C         6.9783671489       -1.7529613352        8.6050926622
 O         6.3214913622        1.8333071280        7.4290592499
 O         4.3941695267       -1.8885478126        7.5010333891
 C         3.2790742617       -1.1002221315        5.1595259158
 C         3.6599695906       -2.0561542516        4.0827886297
 C         2.9576934823       -3.4334758962        4.0953525463
 C         1.4840114147       -3.2158736907        3.9236467045
 C         0.5609831773       -4.1150913644        3.0806309342
 O         4.5155440213       -1.8810601781        3.2435712010
 O         0.9440887357       -2.2918470347        4.4862590557
 C         3.4498165667       -4.3692714198        3.0291785631
 C         3.0896160667       -3.9859420267        5.5207530671
 C        -0.8833230312       -3.8079542776        3.3309711752
 C        -1.1781786733       -2.4814251812        2.5711496802
 C        -2.3307518063       -1.4617532340        2.9918481508
 C        -1.6749332072       -0.0308831032        3.0275425478
 C        -0.9673583501        0.3827111792        4.3117541969
 C        -3.5668133976       -1.3943861889        2.0484883845
 C        -2.9020646041       -1.8391890886        4.3799928347
 O        -0.6114874229       -2.2211422219        1.5476343456
 O        -1.7275466942        0.7591576835        2.0574381912
 C        -0.4616972247        1.8666259852        4.1610437609
 C         1.0075536517        2.1056013192        3.7525651257
 C         1.5248052470        3.5346045365        3.5993295468
 C         2.0619474011        3.6205615894        2.0164175446
 C         3.1626728566        2.6574430195        1.5801270305
 O         1.8314408776        1.2060361459        3.6852903754
 O         1.6011326014        4.4506612865        1.2910453607
 C         0.5145178877        4.5570361124        3.8966782580
 C         2.8774532551        3.6789590656        4.5388854566
 C         3.1504019673        2.1703186343        0.1659279024
 C         2.0684540412        1.1247927538       -0.2241160521
 C         2.0341956550        0.7056177781       -1.7829486023
 C         0.6174138354        0.8405120214       -2.3727761921
 C        -0.2263398218        2.0979247284       -2.0843155063
 C         2.8684691571        1.6213458224       -2.7465088700
 C         2.6492987159       -0.7496003132       -1.9508793805
 O         1.1499304370        0.7056575347        0.4706845677
 O         0.1488983208        0.0037194036       -3.1087627497
 C        -1.3814151688        2.1752746343       -3.0384006330
 C        -2.6063475879        1.4274282019       -2.4748744676
 C        -4.0447487661        1.9253784885       -2.7683081294
 C        -4.8758595223        0.6502845057       -2.7441739928
 C        -4.7196587218       -0.3575923602       -3.9226828948
 O        -2.4857225571        0.4756594660       -1.7170054400
 O        -5.7132535384        0.3788108737       -1.9177072029
 C        -4.2813732842        2.8109411396       -1.4674199336
 C        -4.2146259969        2.7883279469       -3.9761821760
 C        -5.9533531905       -0.7167455434       -4.6667742796
 C        -5.7549058875       -1.9763586239       -5.5443974843
 C        -6.7442062463       -2.0905484644       -6.8238432452
 C        -6.2306949710       -0.7028677992       -7.5768958061
 C        -4.9566886994       -0.8162088908       -8.4412326541
 C        -6.5316460050       -3.4672820914       -7.6826210158
 C        -8.2975552892       -2.0106105264       -6.3747649222
 O        -4.8304287225       -2.7296865592       -5.4177984293
 O        -6.6729294526        0.3802736366       -7.2365749895
 C        -3.6597852388       -0.7278026633       -7.5556807830
 C        -2.5249262332       -0.2959718777       -8.4640470686
 C        -1.3749719262        0.6712680457       -7.9994099451
 C        -2.0330072709        1.7447186019       -7.0263585756
 C        -2.8518327573        2.9395982902       -7.6131128963
 O        -2.5924869926       -0.6452267216       -9.6143072281
 O        -2.0346899756        1.6004460437       -5.8475909105
 C        -0.3141054281       -0.1029247071       -7.1379348527
 C        -0.7236306768        1.3791051811       -9.2744904472
 H         5.2946807759        0.2197971967       10.0165753189
 H         6.8707566952        0.7682038491       10.2945326776
 H         5.5673808263        1.9402623541       10.0043394107
 H         3.9463812572        0.6933534313        6.3861689565
 H         5.1107234101        0.0806286807        5.0676461962
 H         8.4198306361       -0.2716128908        6.5999987060
 H         7.0992125169        0.4704662953        5.8780613120
 H         7.2417216712       -1.4297822535        5.8527144405
 H         6.5681765109       -1.8742862873        9.5512118225
 H         7.0213472207       -2.7129336346        7.9647392110
 H         8.0814826029       -1.5967867521        8.7125911241
 H         2.9001108325       -1.6773684899        6.0110648254
 H         2.6362992195       -0.3969251763        4.7648622102
 H         0.8060064361       -3.8590969956        2.0443616936
 H         0.7098367715       -5.1379808415        3.2853134516
 H         3.2297157547       -3.9569741073        2.0610071226
 H         2.8816553853       -5.3199997868        3.1692156110
 H         4.5092145934       -4.6452032851        3.1309346342
 H         3.3267690243       -5.0401210895        5.5168936814
 H         3.8496867688       -3.4319703734        6.1007322958
 H         2.1138414956       -3.9410325343        6.0011170638
 H        -1.1254036638       -3.6622491017        4.3711772992
 H        -1.4238567614       -4.6351289988        2.9169228288
 H        -1.3996485287        0.2303731419        5.2813372373
 H        -0.0917614479       -0.2106801805        4.4046708567
 H        -4.0952586103       -0.5207997489        2.2550621138
 H        -4.2453236309       -2.2604416926        2.1432651173
 H        -3.2958286975       -1.4134634144        0.9343982373
 H        -3.4263535947       -2.7858451099        4.3438661673
 H        -2.1458702898       -1.9551122633        5.1280133550
 H        -3.5497043275       -1.1015774261        4.8363723403
 H        -1.1620260897        2.4563887418        3.5479295310
 H        -0.5897663707        2.2476237138        5.2204395321
 H         4.1815802603        3.1796049143        1.6028598453
 H         3.3233470593        1.8081108317        2.2262771964
 H         0.0615801238        4.3787688694        4.9424695333
 H        -0.2195669404        4.5943362489        3.0839194845
 H         0.9918102911        5.5433387735        3.8274229493
 H         2.9869584135        4.7005399350        4.8262041826
 H         2.8101008475        3.0907586811        5.4325493966
 H         3.8150663727        3.3554274872        4.1230755351
 H         4.1829555285        1.7866701535       -0.1233446026
 H         2.9272572709        2.9524638372       -0.5748402267
 H        -0.5410910172        2.2008580395       -1.0706847698
 H         0.4570989837        2.9515260972       -2.0447757861
 H         3.6826895642        1.9521561425       -2.2186078468
 H         2.3865189608        2.5766121955       -2.9861825729
 H         3.1116425857        1.1107816104       -3.6322009886
 H         3.7366184050       -0.8064125745       -1.7828849853
 H         2.2432633835       -1.4854573359       -1.3321557486
 H         2.5014471855       -1.1153317057       -2.9680559185
 H        -1.7532699158        3.2248420027       -3.1157242509
 H        -1.2816727301        1.8048475634       -4.1084153786
 H        -3.8319526229       -0.1598518818       -4.5057539393
 H        -4.3299713598       -1.3364888045       -3.5120820421
 H        -5.2594914833        3.2615505965       -1.5975153254
 H        -3.7129976103        3.7390857747       -1.3557075596
 H        -4.0638944880        2.4730920673       -0.4693778181
 H        -3.7769684573        3.8684172237       -3.7722003708
 H        -3.7316707251        2.3952861476       -4.8329268703
 H        -5.2576239603        3.0880331158       -4.1772007935
 H        -6.2830044810        0.0557177425       -5.3893336851
 H        -6.8578853629       -0.9038621039       -3.9577676702
 H        -5.0547790391       -1.7961724344       -9.0209203741
 H        -4.8755093235        0.0048251578       -9.1864634584
 H        -7.1984854035       -4.1733551685       -7.1401885031
 H        -5.4944789214       -3.8350874896       -7.7353510297
 H        -6.9971638509       -3.3897904237       -8.6926076747
 H        -8.4755190931       -2.8285133726       -5.6945135452
 H        -8.5538935449       -1.1660786287       -5.7671408374
 H        -8.9406208654       -2.0399851645       -7.2515031361
 H        -3.9478860658       -0.0100192636       -6.8230977905
 H        -3.4524485364       -1.6426554221       -6.9732798764
 H        -2.1325680257        3.7814024498       -7.7795463032
 H        -3.3012941683        2.7928611834       -8.5728096200
 H        -3.5963593925        3.1724135788       -6.8556837772
 H         0.3730403680       -0.5534910175       -7.8062832436
 H        -0.7886030477       -0.7208305682       -6.4477912964
 H         0.1238279847        0.6944135431       -6.5531469023
 H        -0.8497018521        2.4598026293       -9.2499214242
 H         0.3839123828        1.1574312323       -9.3166651295
 H        -1.0956792704        0.8100708689      -10.0981617637
 Na       -0.9385071161       -0.2116199497        0.0840322003
