155

 C         8.9531637844       -2.3778818557        3.7231508525
 C         8.2440707458       -2.3893075681        2.3672438469
 C         8.9076481962       -1.8331694723        0.9648233214
 C         8.5715232641       -2.7484974238       -0.2993423906
 C         7.6847823852       -2.2360014575       -1.4530550712
 C         8.2073346673       -0.3800776366        0.8355614867
 C        10.3752738364       -1.6967874548        1.1777454198
 O         7.1218413286       -2.8439454764        2.3074077732
 O         9.0649856632       -3.8611196423       -0.3937626526
 C         6.8706696778       -3.3640523362       -2.2165018453
 C         5.3853128196       -3.4516234416       -1.7907294751
 C         4.5048154511       -4.7687238029       -2.3500310738
 C         3.5027427393       -4.1207536953       -3.3637648657
 C         2.2988481809       -3.3309436645       -2.6512561748
 O         4.8246916407       -2.7534895661       -0.9103402948
 O         3.6082663594       -4.1281645240       -4.5875318295
 C         5.3548426567       -5.8225392901       -3.0940967977
 C         3.7903013998       -5.5124665897       -1.1632497428
 C         1.7856344288       -2.3948838816       -3.7789917742
 C         0.6378342481       -1.4476251506       -3.2911698408
 C        -0.7360999078       -1.2717021764       -4.1539487863
 C        -1.8438190495       -2.0330722842       -3.3956758169
 C        -2.7261241888       -3.2139432814       -3.8899584866
 C        -1.0071074832        0.3018783073       -4.1306342590
 C        -0.7222544597       -1.7243166460       -5.6236346368
 O         0.7755334484       -0.9397589442       -2.2165984865
 O        -2.1202523821       -1.6890382926       -2.2216386201
 C        -3.0920879154       -4.1527596679       -2.6343231105
 C        -1.8574544302       -4.6229714351       -1.9359666304
 C        -1.8687301645       -5.6689540978       -0.7352456048
 C        -1.0090811966       -5.0468074679        0.5016565720
 C         0.4704403457       -5.1213869091        0.2582583670
 O        -0.7677429466       -4.2042373614       -2.4101212690
 O        -1.5493482062       -4.7319481553        1.5202601241
 C        -3.2242175715       -5.9408028039       -0.2247869278
 C        -1.2791025659       -7.0251726466       -1.1615303458
 C         1.3125833247       -4.4711831091        1.3099749135
 C         0.9632861133       -2.9576893368        1.2961802626
 C         1.1572713489       -2.0766723605        2.6602883796
 C        -0.0304579099       -1.1631864860        2.7746484401
 C        -1.1098352741       -1.5460279347        3.7641069014
 C         1.3383874699       -2.8584839931        3.9046406552
 C         2.3715936139       -1.0981173258        2.2491972576
 O         0.8173832766       -2.3447555513        0.2824336152
 O        -0.1776972585       -0.2656214226        2.0026041714
 C        -2.3653817374       -0.7346313529        3.6579023593
 C        -2.9582457430       -0.9971302908        2.2787014046
 C        -3.9190449022        0.1741432445        1.6415147567
 C        -3.1359823925        1.3177298012        0.9134002301
 C        -3.3970293250        2.7684401369        1.3660413860
 O        -2.6651109718       -1.9816324881        1.6007155280
 O        -2.3279187132        1.1143515380        0.0476070777
 C        -4.7707649867       -0.4047839353        0.4740102755
 C        -4.8342750249        0.6746057186        2.7470562835
 C        -2.6891125188        3.8102931329        0.4223631567
 C        -2.0296084106        5.0307628979        1.1262107723
 C        -2.0312953758        6.3956210611        0.3194922192
 C        -3.5416569386        6.6791465367       -0.2218523898
 C        -4.3743730833        7.8516296717        0.4095970863
 C        -1.2766110892        7.4474399500        1.1548647333
 C        -1.2257630615        6.3076776622       -0.9814018161
 O        -1.6805871740        4.9169031254        2.2346006214
 O        -3.9148654940        5.9817736459       -1.1040404671
 C        -5.7719852090        7.5298584190       -0.0068857045
 C        -6.6591659078        8.8395923102        0.0447520624
 C        -8.1307868914        8.7886262437        0.4896587289
 C        -8.1594192773        9.6619041528        1.8192287890
 C        -8.2051398459       11.1718943262        1.5666077425
 O        -6.3106441396        9.8646352203       -0.5165340979
 O        -8.1954765521        9.0905238618        2.8894524739
 C        -9.0259887839        9.2956665068       -0.7203187340
 C        -8.5458358167        7.3627554847        0.8602940191
 H         8.1813685381       -2.6829203446        4.5210190394
 H         9.8629436524       -2.9875727469        3.7542431636
 H         9.0956042780       -1.3439806970        4.0319205332
 H         7.0164224442       -1.4059181864       -1.2760238014
 H         8.4348626010       -1.9113923581       -2.1803011245
 H         7.1313732577       -0.4985320067        1.1048914693
 H         8.2136576754       -0.1944343676       -0.1952691509
 H         8.6401175237        0.3962551295        1.4239117482
 H        10.8333679561       -2.6066992213        1.5390276545
 H        10.7899404334       -1.4528483551        0.2563803532
 H        10.6816580629       -0.9093257691        1.8235661668
 H         6.9260217380       -3.2516487623       -3.2912919766
 H         7.4193453479       -4.3062863184       -2.0770421950
 H         1.4404261543       -3.9672159329       -2.3760512165
 H         2.5600153797       -2.8327712476       -1.6894546624
 H         5.9290787964       -5.2742527150       -3.8380135846
 H         4.6674567851       -6.6178333792       -3.5578155911
 H         6.1189418005       -6.2244440553       -2.4123178620
 H         4.1944987443       -5.1347664114       -0.1871139903
 H         2.7355395416       -5.4923711243       -1.1284510952
 H         4.2032465420       -6.5156594152       -1.2050674701
 H         1.4489169831       -3.0712790020       -4.5609167796
 H         2.5854716549       -1.6757090631       -4.0811185854
 H        -3.6556294632       -2.7885626821       -4.2361158849
 H        -2.2513540786       -3.8776112962       -4.5665957168
 H        -0.7328729506        0.8046055606       -5.0527003454
 H        -0.4282627466        0.6420579579       -3.2994894264
 H        -2.1074501350        0.5076389961       -3.9025189864
 H        -0.0684629169       -1.0643450020       -6.1992556542
 H        -0.5245334264       -2.7916304864       -5.7095828150
 H        -1.6995734856       -1.5125851922       -6.0155320509
 H        -3.6174511961       -3.3965736839       -1.9937139874
 H        -3.8390139599       -4.8678514184       -2.8726075780
 H         0.8542905205       -6.1482029693        0.1935346135
 H         0.6589858561       -4.6995917121       -0.7018318728
 H        -3.7267622470       -5.1545449353        0.2831887635
 H        -3.2220377959       -6.6896853061        0.5609083847
 H        -4.0492024367       -6.2229800265       -0.8691154764
 H        -1.9621442924       -7.5899818986       -1.6830667911
 H        -0.2030940376       -6.9150134944       -1.4781056776
 H        -1.1181044311       -7.5380149878       -0.2471190187
 H         2.3667476813       -4.5743661126        1.0668148266
 H         1.0514140052       -4.9603538489        2.2431443751
 H        -1.3280078110       -2.6251607054        3.7157019128
 H        -0.7740635770       -1.4019187713        4.7595315735
 H         0.4666253022       -3.4459746845        4.0994310887
 H         1.7353236955       -2.1403146065        4.6087254806
 H         2.2628516529       -3.4678231958        3.6146038955
 H         1.9552070529       -0.1345495142        1.8582311513
 H         2.9810768289       -0.9806021077        3.1240235389
 H         2.9985830185       -1.5258964394        1.4688377704
 H        -3.0866845646       -0.9306098963        4.5065879150
 H        -2.0597639960        0.2711970594        3.8785264304
 H        -4.4189967836        2.8319694485        1.5501741439
 H        -2.9726597601        2.9186612384        2.3354294093
 H        -4.2407403644       -1.0908470098       -0.2408139106
 H        -5.0677054454        0.4643472801       -0.0545004060
 H        -5.6318152233       -0.9456922731        0.8791425729
 H        -5.4052702344       -0.1674855927        3.1547252503
 H        -4.2978939679        1.1330457440        3.6090930449
 H        -5.6137866958        1.3843415195        2.4946812546
 H        -3.3929583088        4.2347966227       -0.2377138875
 H        -1.8096468526        3.3198446899       -0.0340221922
 H        -4.3521990879        7.9938743298        1.4807599554
 H        -4.0656190603        8.7149035370       -0.1590023690
 H        -0.2164584750        7.1534633800        1.2181914742
 H        -1.8761504899        7.5768231244        2.1190002090
 H        -1.3255614896        8.3582712694        0.5758468570
 H        -1.7473056304        5.6925629294       -1.7676002502
 H        -0.9457027758        7.2218913494       -1.3644971527
 H        -0.3040742626        5.8124802000       -0.9237218435
 H        -5.7700540282        7.0309338009       -0.9887661671
 H        -6.1593228444        6.6192776924        0.6024005850
 H        -7.1382420236       11.3420203722        1.4112766492
 H        -8.7000640807       11.4476235084        0.6445371262
 H        -8.4653666775       11.7689203624        2.3981010878
 H        -9.8736095470        9.8014928471       -0.2350106246
 H        -9.3741116143        8.4757573018       -1.2987114818
 H        -8.4871931829       10.0810778023       -1.3294340508
 H        -8.4437344109        6.7131716654        0.0894781659
 H        -7.9091994423        6.9766260026        1.6556482688
 H        -9.5905647297        7.3584378202        1.2068736351
 Na       -0.9111907809       -0.7662493384       -0.3811677248
