155

 C         8.2334281816       -2.6171904342        3.2010229280
 C         7.7348729070       -2.1925802267        1.7907066956
 C         8.7396279352       -1.8524864633        0.6636777375
 C         8.3114360232       -2.6094276431       -0.6471943169
 C         7.4567233870       -1.7907911952       -1.7658018313
 C         8.7451978940       -0.2881613168        0.4303272257
 C        10.1694728881       -2.3065056351        1.0297012375
 O         6.5630425458       -1.9247199310        1.5989717469
 O         8.6021655265       -3.7780318793       -0.8751201453
 C         6.7660244760       -2.7724974128       -2.7959158742
 C         5.3499070950       -2.9812907309       -2.3065436060
 C         4.6152308640       -4.3164449845       -2.6634720294
 C         3.4021552784       -4.1692839664       -3.6930235311
 C         2.4841370729       -2.9499581291       -3.5734380891
 O         4.7693922202       -2.0717353748       -1.6847710695
 O         3.1427950421       -5.0884130853       -4.3857245093
 C         5.5581328862       -5.4230628691       -3.1706883054
 C         3.9564060675       -4.7472404216       -1.2389826363
 C         1.0724513957       -3.1418608657       -3.9756380726
 C         0.1326098922       -2.0081412570       -3.5094637813
 C        -1.3711860266       -1.9585396995       -4.1766498070
 C        -2.2318042692       -2.6835135590       -3.1006081217
 C        -2.7806063749       -4.0671446169       -3.2929809881
 C        -1.8863600785       -0.4409351409       -4.2270411815
 C        -1.5457636304       -2.6268588837       -5.6028651884
 O         0.3350559220       -1.2359985362       -2.5697994436
 O        -2.5444034107       -2.0901265939       -2.1103627439
 C        -3.2768818304       -4.7010866949       -1.9811128049
 C        -1.9073371863       -5.0859104796       -1.1274370353
 C        -2.2370416705       -5.8202879866        0.3355637904
 C        -1.0368970202       -5.4678840585        1.3140989091
 C         0.3894402741       -5.4073964976        0.7536538003
 O        -0.9022290806       -4.9952418637       -1.7616955229
 O        -1.2536921354       -5.4838415671        2.5302870937
 C        -3.5623394018       -5.1494331955        0.8055368315
 C        -2.4101890829       -7.3480500941        0.0421835319
 C         1.2277583870       -4.4358585210        1.5433442594
 C         0.8567319985       -3.0197128495        1.2692763053
 C         1.6439287133       -1.8068268983        1.9393595884
 C         0.3272665939       -0.8802298324        2.3791497947
 C        -0.6411506087       -1.3493873695        3.4537816773
 C         2.4485283676       -2.2384340288        3.1251952774
 C         2.6137168465       -1.0506424532        0.8653636637
 O         0.0031058835       -2.7301615912        0.4709342072
 O        -0.0300687638        0.0112383096        1.6491039672
 C        -1.9669813367       -0.5973842948        3.3038765955
 C        -2.5462030172       -0.8324512436        1.8930695260
 C        -3.5446747148        0.2789406429        1.3013352025
 C        -2.6527410245        1.4111587250        0.7450606866
 C        -2.8019438495        2.7880185685        1.2919047323
 O        -2.1245336318       -1.7606835095        1.2384993666
 O        -1.8894756115        1.1983443102       -0.1664387828
 C        -4.3364836558       -0.3903986021        0.2373480831
 C        -4.5179062231        0.7280440320        2.4392817594
 C        -1.8520950743        3.8488412025        0.6658774848
 C        -2.0669302044        5.3158266348        1.3945452201
 C        -1.9760042097        6.5573359440        0.4306282131
 C        -3.5658346816        6.6323404904       -0.0699983884
 C        -4.3373823208        7.9518135173       -0.1386568833
 C        -1.5617009995        7.7788386247        1.3670718687
 C        -1.0641325762        6.4342442767       -0.7996122543
 O        -2.5920821828        5.3140056519        2.4543213416
 O        -3.9244968003        5.6321653120       -0.6092602843
 C        -5.7704105084        7.7050397565        0.3314644063
 C        -6.6787574552        8.9694179913        0.0937217030
 C        -7.8524566778        9.2169419100        1.0837638449
 C        -7.1696453030        9.7600708883        2.5890031284
 C        -6.8502105681       11.2073438087        2.5549213050
 O        -6.4819294359        9.6678871636       -0.9098505217
 O        -6.7159853279        8.9138632803        3.3489213663
 C        -8.8147500010       10.2545840915        0.5858694938
 C        -8.5411663906        7.7809694385        1.2812359131
 H         7.4158997785       -3.0722643334        3.8268952493
 H         9.0073858271       -3.4179947715        3.0245975617
 H         8.8473528210       -1.8341701309        3.5987396495
 H         6.7079828119       -1.0419342037       -1.4560741606
 H         8.1755917120       -1.2196219759       -2.3815754635
 H         7.8013904637        0.1976608154        0.6129086920
 H         9.1592099538       -0.0961187776       -0.5652446179
 H         9.4708579784        0.0989938354        1.0784102503
 H        10.3889589278       -3.2653938320        0.5949550749
 H        10.8552782493       -1.6767761374        0.5654706890
 H        10.4634491547       -2.3143768372        2.0543021629
 H         6.6951383129       -2.2298472565       -3.7591625393
 H         7.3345355354       -3.6735655688       -2.9190967881
 H         2.6404880896       -2.6594572915       -2.5511650068
 H         3.0058965540       -2.2034508008       -4.2410928712
 H         6.0932027970       -5.1956733462       -4.0593855638
 H         4.9164339469       -6.2209674048       -3.6820066676
 H         6.1956350881       -5.8953101373       -2.3766732725
 H         3.8637390520       -3.8214610977       -0.6385451606
 H         2.9249128627       -5.1446583777       -1.3374388181
 H         4.5628539464       -5.4917997405       -0.6757562921
 H         0.6308278580       -4.0811110206       -3.6196349637
 H         1.0710560780       -3.3467120001       -5.0874102737
 H        -3.5354875151       -3.9852085039       -4.0344487502
 H        -2.0841733003       -4.8212519864       -3.7245471887
 H        -1.8163346718       -0.0392213540       -3.1944443459
 H        -2.8705593056       -0.4234296192       -4.6153960964
 H        -1.1990920232        0.1185503486       -4.8715890227
 H        -0.9349575124       -2.0752175066       -6.3491998466
 H        -1.1386395157       -3.6536926409       -5.5850416789
 H        -2.5669070161       -2.5888363784       -5.8226284886
 H        -3.9520549182       -3.9507784842       -1.5563259321
 H        -3.9641391490       -5.5160850961       -2.0789411607
 H         0.9055722888       -6.3298911103        0.7987448181
 H         0.3537112383       -5.1257673773       -0.2988673462
 H        -3.5509376925       -4.0831211629        1.0227357673
 H        -3.9612408488       -5.4983300139        1.7851770627
 H        -4.4399970926       -5.2656479964        0.1820355356
 H        -3.4120736334       -7.5693485111       -0.0293087250
 H        -2.1348410405       -7.6146984531       -0.9946217533
 H        -1.9993904256       -7.8977051249        0.8620958876
 H         2.3103283051       -4.6413243795        1.4040331966
 H         1.0900514000       -4.6228609626        2.5860290247
 H        -0.8237489279       -2.4127135083        3.4519043408
 H        -0.1432044963       -1.1034449102        4.3710747687
 H         1.6987796868       -2.6332431261        3.8630592875
 H         2.9070083722       -1.3644724764        3.5755910078
 H         3.1716432382       -3.0627627470        2.8176425588
 H         2.8477361635       -0.0487065967        1.2440481190
 H         3.5665821006       -1.6156229152        0.7408653062
 H         2.1770376257       -0.9874221130       -0.1658646253
 H        -2.6269235676       -1.0134416161        4.0449326765
 H        -1.7267191028        0.4595873245        3.5119143302
 H        -3.7254522734        3.1675665468        1.0744786616
 H        -2.5790562995        2.5912364384        2.3131526789
 H        -3.7158974858       -1.0905415281       -0.3288131061
 H        -4.7865710580        0.3466808196       -0.4423784869
 H        -5.2742647505       -0.7989441315        0.6408650606
 H        -5.2151784709       -0.0797001248        2.4861179867
 H        -4.0721679840        0.7439648115        3.4255623598
 H        -5.1148931654        1.5763321158        2.1575982915
 H        -1.9302212463        4.0126041385       -0.3991829711
 H        -0.7340318409        3.6493978221        0.8113227961
 H        -3.8777431174        8.8292220310        0.3770365599
 H        -4.4143804531        8.3298304485       -1.1397668177
 H        -0.4941175838        7.8942172435        1.5854757578
 H        -2.1804706709        7.5231870392        2.2686598344
 H        -1.8912093637        8.7459763316        0.9017674179
 H        -1.2009458886        5.4737402956       -1.4216295286
 H        -1.1778331384        7.2777498907       -1.4255711056
 H        -0.0776176066        6.3884964428       -0.4805681132
 H        -6.0883721561        6.8942773289       -0.3165015898
 H        -5.6990980738        7.3929440723        1.4197772844
 H        -6.3852561300       11.4256148620        1.5564115963
 H        -7.7830680607       11.7251700935        2.4255184659
 H        -6.2431830366       11.5166513375        3.3455997050
 H        -9.7516842324       10.2448106897        1.1654233941
 H        -9.1835228480       10.0977898021       -0.4333584530
 H        -8.3795509287       11.2470075284        0.4843790066
 H        -8.7628574125        7.3739730965        0.3157654004
 H        -7.8656928385        7.1485088785        1.7668333254
 H        -9.4939946808        7.7920110861        1.8370251368
 Na       -0.9161028092       -0.7407724646       -0.6441900793
