155

 C         6.5899463049       -2.8736715746        1.5012960331
 C         7.3520662359       -1.6020330842        1.0439077353
 C         8.6423120294       -1.8751950742        0.0946182437
 C         7.9407907954       -2.4498405771       -1.1199865130
 C         7.3642232030       -1.6115135882       -2.3289945375
 C         9.3762168322       -0.6082526978       -0.1535097762
 C         9.6178476339       -2.8106991413        0.9278474812
 O         6.9997091796       -0.4665046007        1.3126537708
 O         7.6753913876       -3.6675682001       -1.0963441169
 C         6.6282115443       -2.3532782538       -3.4169699334
 C         5.1604439036       -2.7205256743       -2.9447403151
 C         4.5851841648       -4.1453333397       -3.3031478115
 C         3.2165858985       -3.8461488183       -3.8360715499
 C         1.9864431032       -3.5730812395       -2.8750898418
 O         4.4807233305       -1.9156208599       -2.3736104128
 O         3.0696770944       -3.9779092151       -5.0558906939
 C         5.4755355968       -5.0583555960       -4.2147112541
 C         4.5434678222       -4.7626973772       -1.8915820658
 C         0.7087011802       -3.7925687926       -3.6457880377
 C        -0.2759346250       -2.6496070112       -3.3159959376
 C        -1.8503598638       -2.8514712920       -3.6972510765
 C        -2.6275744234       -3.3298747267       -2.4484089660
 C        -3.2215731422       -4.7610183950       -2.4910996907
 C        -2.6054753109       -1.5627628306       -4.0992122778
 C        -2.0694163363       -3.9063539834       -4.8553773657
 O         0.0752748030       -1.6609526183       -2.7315562474
 O        -2.7833773225       -2.6088804406       -1.4601004268
 C        -3.4686233937       -5.2423584050       -1.0046343165
 C        -2.4825885035       -6.2102968745       -0.3994429127
 C        -2.2641583121       -6.2880708329        1.1697023070
 C        -1.1849767057       -5.2059742873        1.6402834073
 C         0.2711223023       -5.3901363602        1.0797029364
 O        -1.7621315894       -6.8664515816       -1.1955780514
 O        -1.4110574876       -4.4285562625        2.5295118937
 C        -3.5571351002       -5.9367629782        1.7839550665
 C        -1.7884208328       -7.7346042553        1.5497336064
 C         1.2508215020       -4.3387499483        1.6288257201
 C         0.9452423112       -2.9646412155        1.0054743392
 C         1.8481670504       -1.7775031750        1.3777964225
 C         0.7085613980       -0.7051822923        1.5874403044
 C        -0.0078611815       -0.9219846893        3.0176282080
 C         2.5722404224       -2.0591390039        2.7045254478
 C         2.7973426129       -1.2950837416        0.2686343570
 O         0.3441346206       -2.9709810920       -0.0619357345
 O         0.2821992108        0.0620448892        0.7683088408
 C        -1.3087465246       -0.1633018853        3.1510089324
 C        -2.1969129135       -0.4913257264        1.9559603846
 C        -3.3115617154        0.5274667347        1.6584969171
 C        -2.6024954112        1.5177210130        0.5209137804
 C        -2.7024408584        3.0406640439        1.0777228634
 O        -1.9603695188       -1.4508921705        1.2521066069
 O        -2.0940048541        1.1201325964       -0.5039711835
 C        -4.5320487794       -0.1648987052        0.8982109541
 C        -3.7593086671        1.2380178841        2.9313543926
 C        -2.1463676295        4.1167703918        0.1681679864
 C        -1.8805522820        5.4155484962        1.0024967614
 C        -2.0505774313        6.8149336059        0.3843876037
 C        -3.5698564825        6.8771305129       -0.2356383948
 C        -4.3033157969        8.1463124347        0.0384282881
 C        -1.6792418245        7.9051724457        1.3545243971
 C        -1.1166218974        6.8997488621       -0.9317660693
 O        -1.5867738832        5.2972582202        2.1880896338
 O        -4.0629151158        5.9166259059       -0.8400765094
 C        -5.7958150915        7.9834625448        0.4032146127
 C        -6.4464336304        9.4236158875        0.5948534326
 C        -7.4016507553        9.6945975454        1.8459535958
 C        -6.3656251397        9.7083251550        2.9319171592
 C        -5.9429907956       11.1003345217        3.4499793232
 O        -6.2187449692       10.3069578177       -0.1444552359
 O        -5.7074182358        8.6978062559        3.1815114998
 C        -8.1305086145       10.9681997920        1.5649890751
 C        -8.3451833481        8.5545752365        2.1442397158
 H         5.6180228666       -2.6734406222        1.8826256182
 H         6.5908398271       -3.5850381880        0.7147296559
 H         7.0317326909       -3.1947837335        2.4686452031
 H         6.5925468304       -0.8887805655       -2.0570148039
 H         8.0947266180       -0.9124156639       -2.7487500153
 H         9.1327017658       -0.0144012738       -1.0809555412
 H        10.4401306973       -0.8316989078       -0.2252874351
 H         9.4157587718        0.1529309107        0.6356997923
 H         8.9675252179       -3.4773079420        1.6162777291
 H        10.2973658521       -3.4816804350        0.3405451723
 H        10.1782004191       -2.1165833265        1.5396600198
 H         6.4238933683       -1.6062172884       -4.2086220027
 H         7.2119968985       -3.1979451668       -3.7508853938
 H         2.1822708417       -4.1839345464       -2.0586076812
 H         2.1404694476       -2.5127732824       -2.5695327239
 H         5.8851491168       -4.5679204638       -5.1331801623
 H         4.9077568997       -5.9279912846       -4.4669508573
 H         6.3206509268       -5.3955350391       -3.6514026784
 H         3.8918684124       -4.1876978851       -1.1846419256
 H         4.2315582055       -5.7739833821       -1.8670897862
 H         5.5637814362       -4.8576416856       -1.5001822550
 H         0.1943035569       -4.6908923137       -3.3924987729
 H         1.0896259146       -3.8396559374       -4.6827660930
 H        -4.1824957846       -4.7935759308       -3.0126030140
 H        -2.5295169982       -5.4547679285       -3.0613271347
 H        -2.5393726801       -1.3456531396       -5.1401657126
 H        -2.1835600975       -0.6637843490       -3.6088099656
 H        -3.6827973463       -1.6296577941       -3.7604883293
 H        -1.6339995011       -3.6207512088       -5.8102906646
 H        -1.5865283512       -4.8506969043       -4.6428540767
 H        -3.1019006884       -4.1519277914       -5.0568592812
 H        -3.5096754351       -4.3139117094       -0.3205865892
 H        -4.3836991120       -5.8276523737       -1.0031123051
 H         0.5118185901       -6.3314717863        1.5808910409
 H         0.3999052114       -5.4458560181       -0.0296548890
 H        -3.9545433914       -4.9825240059        1.6162417205
 H        -3.6956588007       -6.1282096142        2.8162601157
 H        -4.3691898598       -6.5619277962        1.4366450236
 H        -2.5445898016       -8.5177161560        1.2695194478
 H        -0.7966104520       -7.9007845021        1.2682436692
 H        -1.7390947111       -7.7896658869        2.6366846905
 H         2.2761662684       -4.7378816668        1.4570803588
 H         1.1509602272       -4.3376050108        2.6968662740
 H        -0.1310911723       -2.0404557270        3.1575457122
 H         0.6606468020       -0.5834682275        3.7679968541
 H         1.9317355017       -2.2546397682        3.5139138479
 H         3.1045565265       -1.1585935200        3.0800192305
 H         3.2955605841       -2.8957343838        2.7457035190
 H         2.8937012288       -2.0788321654       -0.5068210176
 H         2.4952235721       -0.4168405359       -0.2549520410
 H         3.7963190138       -1.1234309168        0.6773756141
 H        -1.7966877869       -0.3797710202        4.1291874735
 H        -1.0131773388        0.8947238254        3.1912971588
 H        -3.7166870909        3.2165624175        1.4975412650
 H        -2.2274794478        3.1221843259        2.0242572452
 H        -4.2406102818       -1.1476810354        0.4459020625
 H        -4.7835913025        0.5022695380        0.0918888271
 H        -5.3927899641       -0.4599199627        1.4743597479
 H        -3.8196613032        0.3973575773        3.6983922023
 H        -2.9676572118        1.9634381376        3.2767045288
 H        -4.7866170249        1.7999003283        2.9181021071
 H        -2.7500903413        4.2938233187       -0.7472167425
 H        -1.1259400896        3.7815948439       -0.0947962147
 H        -3.8687524035        8.6133094434        0.8384765226
 H        -4.2964940940        8.7588548664       -0.8706590197
 H        -0.6492659027        7.6724645126        1.7183564409
 H        -2.2991390805        7.9723472541        2.2601503335
 H        -1.6995955049        8.8793459432        0.8753617676
 H        -1.3919325427        6.1375888828       -1.5679618179
 H        -1.3042437919        7.8455546865       -1.5005968454
 H        -0.0432433790        6.8191921218       -0.6127706104
 H        -6.3337590632        7.3905900213       -0.3003935741
 H        -5.9565532316        7.3742347825        1.3650559595
 H        -5.7064875388       11.7540519051        2.6712208831
 H        -6.6518056075       11.5514525945        4.1780338305
 H        -5.0286505663       10.9100735431        4.0715466495
 H        -8.2100293665       11.6226841432        2.4076382745
 H        -9.0839317231       10.8997939498        1.1338588470
 H        -7.5844190299       11.6651774715        0.8944711390
 H        -9.1213289424        8.5443981843        1.4023205450
 H        -7.7727857930        7.5926884220        2.3577984674
 H        -8.9005177646        8.8388154767        3.0271047662
 Na       -1.0998848923       -1.1406236425       -0.8736942051
