155

 C         6.3132384161       -2.6223040575        1.4090617164
 C         7.2307106665       -1.4525133778        0.9389747501
 C         8.4643838775       -1.9808167286       -0.0157132250
 C         7.8547416919       -2.5937707951       -1.2654729299
 C         7.5417950984       -1.6874924747       -2.3803631695
 C         9.1564397499       -0.6960750631       -0.4244148376
 C         9.4209391997       -2.9213638564        0.7502341121
 O         7.1131006353       -0.3382518210        1.2941653909
 O         7.5306642931       -3.7349893249       -1.2722690552
 C         6.7355066674       -2.3181561040       -3.5631914791
 C         5.2542435292       -2.6678876243       -2.9770553203
 C         4.5228343795       -4.1644600938       -3.4033143452
 C         3.1486113481       -3.9298082491       -3.9801662915
 C         1.9852816744       -3.6276114706       -2.9898676435
 O         4.5668024564       -1.7999209652       -2.4369938647
 O         3.0341848581       -3.8260572468       -5.1760399057
 C         5.4711165345       -4.7741430674       -4.4429743226
 C         4.5958808425       -5.0037321710       -2.1024590458
 C         0.6427005728       -3.9594690574       -3.6173982621
 C        -0.4555754466       -2.8418252963       -3.3900474678
 C        -1.9323051203       -3.1430634489       -3.8588647062
 C        -2.6558761261       -3.4743169261       -2.4750268571
 C        -3.2293618369       -4.8729874470       -2.2048849870
 C        -2.4195056780       -1.7389237645       -4.3330803869
 C        -2.0402845914       -4.1370008237       -5.0304610826
 O        -0.2093629739       -1.7627158028       -2.8497027639
 O        -2.6405409714       -2.7213382099       -1.5534895727
 C        -3.4294519983       -5.2720046191       -0.7546450102
 C        -2.4361850729       -6.3085249756       -0.1876277476
 C        -2.2131229621       -6.4317973420        1.3031856691
 C        -1.1417566697       -5.3012923379        1.6836984033
 C         0.2596298689       -5.5009953431        0.9798741435
 O        -1.8704264479       -6.9804935219       -0.9814283519
 O        -1.3761683586       -4.5561193056        2.5923030262
 C        -3.5361896266       -6.1375956827        1.9899959160
 C        -1.7696268122       -7.8660129553        1.5988834888
 C         1.1873631081       -4.4113851084        1.5125793994
 C         1.0307495612       -3.1050845143        0.8501068928
 C         1.7783917940       -1.8414971063        1.4902661918
 C         0.6837515862       -0.7688451677        1.8066485700
 C         0.2010369530       -0.5885441283        3.2600877601
 C         2.6846497052       -2.0654499650        2.6841513682
 C         2.7154704393       -1.1120698156        0.3454378157
 O         0.3278134646       -3.0034566378       -0.1303860863
 O         0.3028122011       -0.0046003068        0.9039648686
 C        -1.1360039029        0.2053749002        3.3289710292
 C        -2.1553831914       -0.2280106297        2.2585616692
 C        -3.3616606101        0.6377011183        1.7409401178
 C        -2.7207778314        1.7059984724        0.6293916637
 C        -2.9114934775        3.2060675787        0.8354473991
 O        -1.9632858877       -1.3007947154        1.6655363515
 O        -2.1845539942        1.1273501705       -0.3461694692
 C        -4.3546215372       -0.3377973924        1.0538551806
 C        -4.1096235512        1.3407221872        2.9240691474
 C        -1.8832144230        4.0016927405        0.0113518157
 C        -1.7812821375        5.3639155954        0.8465736403
 C        -1.9464026680        6.7970491322        0.2039790289
 C        -3.4872633000        7.0389101809       -0.1131172928
 C        -4.2451867093        8.3788092062        0.0771257285
 C        -1.3507039504        7.7807097929        1.2041883457
 C        -1.3074669265        6.8436714658       -1.1279625641
 O        -1.6327740674        5.2583744376        2.0361235747
 O        -4.0957551958        6.1199632276       -0.5809556193
 C        -5.7459663697        8.1790504787        0.3405111652
 C        -6.4538071486        9.5189623332        0.5053515562
 C        -7.2690197894        9.6996247740        1.8523257560
 C        -6.2642687594        9.7720555944        3.0356272496
 C        -5.7120060259       11.0405742477        3.6770388894
 O        -6.2368270203       10.4214680456       -0.2432651958
 O        -5.6895059370        8.7584146556        3.3541661667
 C        -8.1339598075       11.0019546047        1.8747951850
 C        -8.3036546636        8.5971773096        2.2203234403
 H         5.4282410700       -2.2005131758        1.9774074373
 H         6.0100839884       -3.1487310476        0.5100968796
 H         6.7110044139       -3.2127757417        2.1533917642
 H         6.8437749677       -0.9255111987       -1.9574470501
 H         8.3964626752       -1.0956153379       -2.7104235570
 H         8.4676073106        0.0530267772       -0.8062058243
 H        10.0725231158       -0.7150940109       -1.0481212300
 H         9.5828425519       -0.1771007739        0.4384600118
 H         9.1805350089       -3.8796541035        0.5647051342
 H        10.3873038448       -2.7074866054        0.2887729935
 H         9.5165203142       -2.6747797114        1.8420024293
 H         6.4039064938       -1.6122913809       -4.3371898513
 H         7.3506300278       -3.1312391273       -3.9617868686
 H         2.2487227575       -4.1815788922       -2.0197924090
 H         2.0771432286       -2.5695438879       -2.8162423756
 H         5.4039863288       -4.2742160299       -5.3819868604
 H         5.1814272087       -5.8174203730       -4.7551054678
 H         6.4884166475       -4.7503822346       -4.0360191925
 H         4.6044805016       -4.3673160576       -1.2669070089
 H         3.8186773605       -5.7653010991       -1.8750781746
 H         5.5104519994       -5.5668957983       -2.0830805735
 H         0.3226847912       -5.0045434663       -3.3004945562
 H         0.7417138930       -3.9461673746       -4.7259277014
 H        -4.2372454982       -5.0175713343       -2.6075484374
 H        -2.6158062754       -5.5621013624       -2.7365038947
 H        -1.7438571059       -1.3435945847       -5.1467044263
 H        -2.3398273864       -1.0198070324       -3.5403033293
 H        -3.4356552476       -1.7230238395       -4.6715167047
 H        -1.4823910001       -3.7835110284       -5.9066324997
 H        -1.5915316384       -5.1316889907       -4.9047395439
 H        -3.0638819012       -4.2360792001       -5.3587358489
 H        -3.3872646440       -4.3684326989       -0.2238895392
 H        -4.4301073974       -5.7686645939       -0.7106424936
 H         0.5968435648       -6.5296972630        1.1751233168
 H         0.1061486902       -5.2807119419       -0.0670373384
 H        -3.8750196037       -5.0961324280        1.9916827091
 H        -3.6359474779       -6.4456757305        3.0379574583
 H        -4.4238288552       -6.5895600745        1.5589389313
 H        -2.0106671361       -8.4037168978        0.7070118984
 H        -0.6219491384       -8.0328163374        1.7661652582
 H        -2.3121461302       -8.3757622207        2.4261432675
 H         2.2322498923       -4.6920581991        1.3561617751
 H         1.0468859465       -4.3994618940        2.6231061343
 H         0.0670335921       -1.6036016355        3.6263022550
 H         1.0676067406       -0.1118379068        3.8503143997
 H         2.3483948104       -2.7706653806        3.4525637167
 H         3.0061916762       -1.2389265997        3.2318849385
 H         3.6094347607       -2.4980014727        2.3270054608
 H         2.1969943072       -0.6175862933       -0.4557124623
 H         3.2649920908       -0.3385413365        0.8766525696
 H         3.5074858453       -1.7811280219       -0.0001075097
 H        -1.6239026638       -0.0419753557        4.2973445115
 H        -0.9870010861        1.3285387086        3.2959097976
 H        -3.8580999622        3.6020418509        0.6412204559
 H        -2.8772471076        3.4910272443        1.9429493469
 H        -3.9478636662       -0.8738811131        0.2326675465
 H        -5.2883613469        0.1757210952        0.7961689119
 H        -4.6514041529       -1.0985595049        1.7719204121
 H        -4.6643627210        0.7913185733        3.6389025540
 H        -3.4531725842        2.0084166671        3.4633117579
 H        -4.7726669874        1.9262969584        2.4417737867
 H        -2.2715383271        4.3143530321       -0.9643627483
 H        -0.8850536961        3.5457909238       -0.0096178727
 H        -3.9216446967        9.0737606765        0.9564147322
 H        -4.1691684919        8.9212247939       -0.8508573768
 H        -0.3811084910        7.5330050248        1.5165771727
 H        -1.9868038166        7.7828937363        2.0934153759
 H        -1.3120808167        8.7947705920        0.8361313332
 H        -1.7809236575        6.1812811543       -1.9651856851
 H        -1.4228864149        7.8719538496       -1.4356455587
 H        -0.2736465750        6.6382811102       -0.9647342057
 H        -6.3095341615        7.5553491193       -0.4043560308
 H        -5.8966083079        7.6297792462        1.2162035016
 H        -6.0076538360       11.9323281914        3.0078601730
 H        -6.1380504053       11.2066220786        4.6822368981
 H        -4.6280765010       11.0079910163        3.8266583111
 H        -8.6855101682       11.2606948527        2.7898333725
 H        -8.8992080701       10.9859167538        1.0829401496
 H        -7.6605386127       11.9204017589        1.6430976226
 H        -8.6264540727        8.1468854870        1.2868106546
 H        -7.7833059589        7.9291304983        2.8453089034
 H        -9.2491193045        8.9658167669        2.6888553757
 Na       -1.0691322607       -1.0190875254       -0.7216032674
