155

 C         6.1943193605       -2.3721073263        0.8630292177
 C         7.1992552896       -1.3727135594        0.5487279284
 C         8.3192664242       -1.8970224738       -0.3621957354
 C         7.5388105370       -2.4827094152       -1.6517591415
 C         7.2041998620       -1.4214586437       -2.7264449924
 C         9.4223251089       -0.7956845621       -0.6364108655
 C         9.1247054671       -3.1504524190        0.2311796513
 O         7.0600230093       -0.1982233396        0.7610948772
 O         7.1290552077       -3.6067056255       -1.6519202559
 C         6.4850411491       -2.1503031888       -3.8587021533
 C         5.3189912696       -2.9916433679       -3.2034294128
 C         4.7882441259       -4.2472491262       -4.0160687997
 C         3.2536413049       -3.7686495046       -4.4586725989
 C         2.1093844786       -3.4900143213       -3.3958658600
 O         4.5552143665       -2.4441730554       -2.4265882989
 O         2.9663388578       -3.7059284188       -5.6062963159
 C         5.5428489413       -4.5263134467       -5.3308710837
 C         4.7208242678       -5.4308772661       -3.0367905142
 C         0.6720711500       -3.6430250871       -3.9920867534
 C        -0.4557949724       -3.0190772690       -3.2419133240
 C        -1.9349832715       -3.4564213301       -3.4503823783
 C        -2.7823222066       -3.6429969547       -2.1781239692
 C        -3.5756413850       -4.9972190516       -1.8700252198
 C        -2.7143908893       -2.3191419145       -4.2032123854
 C        -2.0554371592       -4.7732902256       -4.2461136184
 O        -0.2210402977       -2.0690920833       -2.5536709727
 O        -2.8582339331       -2.7371817515       -1.3168358134
 C        -3.4907415044       -5.3755269814       -0.3617121949
 C        -2.3745164437       -6.5082534429       -0.0137228362
 C        -2.0245035839       -6.6005024007        1.5508145820
 C        -0.9474154804       -5.5353419639        1.9960973194
 C         0.3075613106       -5.4407560297        1.0357804288
 O        -1.8269439154       -7.1072218970       -0.8588456952
 O        -1.1163483983       -5.0057265748        3.0683037381
 C        -3.3101489402       -6.5901176032        2.3832261012
 C        -1.3549113462       -7.9376171187        1.7890001850
 C         1.3161150251       -4.3630380768        1.5848868159
 C         0.7184042546       -2.8987088552        1.2443040527
 C         1.5481550043       -1.6903843338        1.7088925638
 C         0.6245769923       -0.4582761499        1.7705756977
 C         0.2974397538        0.1520577749        3.1570973955
 C         2.1650755349       -2.0525612164        3.0801557712
 C         2.6678320643       -1.4838084538        0.6222214638
 O        -0.3691702323       -2.7854500446        0.6959603746
 O         0.3168499743        0.1061722459        0.7371579005
 C        -1.0884035183        0.7852629544        3.1106284193
 C        -2.1956557880       -0.1430090119        2.3749482521
 C        -3.3839967406        0.7221775202        1.8741893787
 C        -2.7553542075        1.6845509781        0.7379352074
 C        -2.8473488630        3.1606671984        0.9705703055
 O        -1.9197265839       -1.2833935103        2.0262797880
 O        -2.2037410507        1.1728405020       -0.2115118804
 C        -4.4229521812       -0.1705709312        1.1052123818
 C        -4.0117909040        1.4769217529        3.0672360975
 C        -2.3217850222        4.0927822432       -0.1212371139
 C        -1.7441284295        5.3475259086        0.4915071587
 C        -1.8625298914        6.7590458441       -0.2335520719
 C        -3.5696063319        7.0326981357        0.0446317476
 C        -4.0421442363        8.4194678427        0.6242062304
 C        -0.7530776566        7.6425688778        0.3621651083
 C        -1.7440587392        6.7242729238       -1.7335587478
 O        -1.2932035535        5.2977841191        1.6012949782
 O        -4.3280461460        6.1360804217       -0.2465503900
 C        -5.5596619257        8.5147227976        0.3307657409
 C        -6.1769048524        9.8727842312        0.8560676318
 C        -7.0066988167        9.8867541342        2.1332973336
 C        -5.8481598019        9.7337422782        3.2607267792
 C        -5.3467141929       11.0613672544        3.8758235462
 O        -5.9441900454       10.9050126017        0.2421093701
 O        -5.5016309863        8.6445178212        3.6772344260
 C        -7.6947646793       11.1832928109        2.1768837499
 C        -7.9269980327        8.6070700493        2.2896822635
 H         5.6706810858       -2.1260260069        1.7690371015
 H         5.4707020431       -2.4388781508       -0.0004523360
 H         6.7296865127       -3.3254688331        0.8392550099
 H         6.5487052983       -0.6258297474       -2.3331810723
 H         8.1951297458       -0.9752369782       -3.0776462971
 H         9.2442515125       -0.1712455923       -1.4128882082
 H        10.4071834428       -1.0952288539       -0.8830226626
 H         9.4398556427       -0.1004862043        0.2115181790
 H         8.3807825495       -3.8014504878        0.6185376338
 H         9.6672623827       -3.6041592538       -0.5534227395
 H         9.7794218050       -2.8502252802        0.9993352141
 H         6.0413104117       -1.5936093297       -4.6835184835
 H         7.1473875093       -2.8690963613       -4.3452691454
 H         2.3173180751       -4.0671469778       -2.5043202619
 H         2.3639253179       -2.3864703819       -3.2597235136
 H         5.2581419010       -3.6740181044       -6.0170051879
 H         5.1962160773       -5.4328407565       -5.8039888301
 H         6.6617006658       -4.6316170213       -5.1780571006
 H         4.5913852379       -5.0970523646       -2.0030071283
 H         3.8474965743       -5.9957356461       -3.2902164704
 H         5.5787903410       -6.0727264135       -3.0011412567
 H         0.5217656327       -4.7297847397       -3.9808327480
 H         0.7731607437       -3.4324042109       -5.0892986975
 H        -4.5944079095       -4.7250484812       -2.1033028650
 H        -3.3741647427       -5.8519556427       -2.5658383454
 H        -2.5609840014       -2.3718153492       -5.2524087207
 H        -2.3274672158       -1.3303269664       -3.8729314675
 H        -3.7701387375       -2.2610383515       -4.0935929222
 H        -1.4768245533       -4.7539324634       -5.1490954719
 H        -1.7332463354       -5.6278174883       -3.6767482828
 H        -3.1146165130       -4.9985100570       -4.6053751557
 H        -3.3061057415       -4.5511971714        0.2999289782
 H        -4.4231219080       -5.7409185055       -0.0763138735
 H         0.6912437254       -6.4581316944        1.0503754830
 H        -0.0491523006       -5.0974362455        0.0627492929
 H        -3.8282957245       -5.6118620362        2.6448377430
 H        -3.2591804757       -7.1151543266        3.3803014989
 H        -4.0943330909       -7.1382584862        1.8315268988
 H        -0.2545098912       -8.0036066849        1.8533452640
 H        -1.5748983261       -8.3459948246        2.7358883717
 H        -1.8648200155       -8.6188988335        1.0984611588
 H         2.2086770653       -4.6448631301        1.0228168080
 H         1.4891206927       -4.4879314593        2.6241640704
 H         0.3894801483       -0.7000937672        3.8497059698
 H         1.0021794271        0.8698512581        3.4026071641
 H         1.4303109927       -2.4732163338        3.8237009447
 H         2.7330316928       -1.1794264777        3.4978439299
 H         2.8567761446       -2.8308582156        2.9648786687
 H         3.3401328197       -2.3549843031        0.5498943592
 H         2.0185622066       -1.4282157079       -0.2947476039
 H         3.1611258930       -0.5515213065        0.6770872534
 H        -1.4163197475        0.8973347044        4.1235987648
 H        -1.1312990082        1.6855815277        2.5830691961
 H        -3.9569418764        3.5461362997        1.0463830365
 H        -2.3493774925        3.4430755576        1.9925941401
 H        -4.8823753076        0.5315543387        0.4500310017
 H        -5.1680365332       -0.6743582170        1.7131354832
 H        -3.9714483925       -0.9741492845        0.5221642281
 H        -4.5175152162        0.8308204538        3.7061406411
 H        -3.2853777634        2.0090605438        3.6608752347
 H        -4.7265521384        2.2000636680        2.7832039326
 H        -3.0644369620        4.4326592978       -0.8976925640
 H        -1.4818231074        3.6115913977       -0.6042638870
 H        -3.8295869572        8.3600608470        1.6874966720
 H        -3.3149944867        9.2806729144        0.3056516764
 H         0.2243227809        7.1238889772        0.2313728246
 H        -0.8393530323        7.7241293765        1.3990632650
 H        -0.6282129910        8.6910791207        0.0552820132
 H        -2.7465779024        6.3362935457       -1.9862277776
 H        -1.5226188227        7.6630387599       -2.1783463723
 H        -1.0742529020        5.9640167265       -2.0715633305
 H        -5.6666762128        8.5481841520       -0.7375843304
 H        -6.0069688043        7.5790738490        0.7259789067
 H        -4.8638702851       11.7915002947        3.1811625638
 H        -6.1822341733       11.6908337749        4.0880975785
 H        -4.7281475372       10.8316432220        4.6813828726
 H        -8.2087259198       11.4480646181        3.0966670234
 H        -8.5895807609       11.0518461622        1.5127698473
 H        -7.1506530750       12.0163964287        1.7617948578
 H        -8.6463924991        8.6651550539        1.4189766011
 H        -7.3845998093        7.6972507783        2.2377648723
 H        -8.3910369563        8.7128542729        3.1969453693
 Na       -1.4232480714       -0.8880598710       -0.6461556653
