155

 C         5.7504254739        1.2716912120        9.0255337158
 C         6.4216924562        0.7195303982        7.7477669962
 C         6.4251051378       -0.8153322914        7.4790544498
 C         4.8949041308       -1.1394923071        7.0570823508
 C         4.2246860500       -0.3634943111        5.9210449993
 C         7.5067803410       -1.0681187710        6.3037083985
 C         6.7672070634       -1.6532294767        8.6220318402
 O         6.6768543410        1.3987887991        6.7552901311
 O         4.2441663046       -1.9041174883        7.6978188339
 C         3.0604848065       -1.2754008587        5.2778018674
 C         3.5542483619       -2.1801216877        4.2341208796
 C         2.8773915299       -3.5560775777        4.0196294868
 C         1.3780908964       -3.4612042033        3.9772667687
 C         0.4705957860       -4.2293679982        2.9976840498
 O         4.4326241491       -1.8155853832        3.5344135400
 O         0.7842436397       -2.8491750478        4.8169290074
 C         3.3229651317       -4.2664874927        2.7238874444
 C         3.1611832800       -4.3395078124        5.3343277830
 C        -0.9826992179       -3.8810636334        3.2231370592
 C        -1.3209625654       -2.4649903502        2.5329525527
 C        -2.2212728122       -1.3905336643        3.4801788092
 C        -1.5511863339        0.0410903152        3.3739036826
 C        -0.8873421315        0.7788513122        4.5343128292
 C        -3.6170233560       -1.3602178467        2.7303266843
 C        -2.3170838409       -1.7618779083        4.9307227133
 O        -1.0782338132       -2.1572452017        1.4067004969
 O        -1.5738145562        0.5814161276        2.2840691313
 C        -0.4394701492        2.2157635131        4.3253980056
 C         0.9750732668        2.1288702673        3.6857362258
 C         1.7256993915        3.4798862346        3.3273348095
 C         2.3237953545        3.3725047365        1.8949544658
 C         3.4966837266        2.3421329764        1.5474235611
 O         1.4898783428        1.1314217010        3.3093944806
 O         1.9064860083        4.0919596121        0.9991188468
 C         0.6635701150        4.6962273060        3.3433777920
 C         2.9625539625        3.7206741458        4.2828864452
 C         3.5252263161        2.2554980296        0.0022597070
 C         2.2514640387        1.5406862448       -0.4928110413
 C         2.2974768628        0.9424990022       -1.9917905895
 C         0.8146895094        1.0018282343       -2.5314031917
 C        -0.0335118291        2.2457650604       -2.2777838708
 C         3.2455289199        1.5999955475       -2.9684440284
 C         2.8038798457       -0.4945323949       -1.8094682885
 O         1.3522110596        1.2417315139        0.2636759518
 O         0.4287408487        0.1261719972       -3.3135712727
 C        -1.4557711150        2.3256209618       -2.8432356424
 C        -2.6069133178        1.5260134368       -2.2463756463
 C        -4.0719703746        1.9517103948       -2.5332223829
 C        -5.1666449659        0.7200343138       -2.5648341212
 C        -5.2415524148       -0.1968352446       -3.7996094931
 O        -2.3854102578        0.5451367707       -1.5877637920
 O        -5.8904903095        0.4568126853       -1.6451249799
 C        -4.5469490148        2.8322443547       -1.3739769411
 C        -4.0859853281        2.8001740627       -3.8861698157
 C        -6.0278037399       -1.4967293206       -3.6924390307
 C        -5.7542640104       -2.1765391471       -5.1223038298
 C        -6.7379420507       -2.0099619072       -6.4128731467
 C        -6.3049526543       -0.6946041349       -7.2445130993
 C        -5.2352733500       -0.6024317296       -8.3112672424
 C        -6.5064405729       -3.2339855993       -7.2163771461
 C        -8.2714292875       -1.8778706459       -6.0756972256
 O        -4.7140318618       -2.6997095624       -5.3168605117
 O        -6.9662009857        0.3272995311       -6.8804192533
 C        -3.8389342326       -0.4795305194       -7.6078262031
 C        -2.6804637951       -0.3465496683       -8.5705008486
 C        -1.5275153018        0.7500187542       -8.2268833121
 C        -2.1054796734        1.8992511367       -7.3397337913
 C        -2.9655037940        3.0889463097       -8.0051789267
 O        -2.5056371450       -1.0716225374       -9.5542934456
 O        -2.0255987250        1.8020316943       -6.1390042307
 C        -0.4408151282       -0.0525588999       -7.3936233181
 C        -0.9201974477        1.3280550410       -9.5196745311
 H         4.7416705348        0.9767891106        9.0038493703
 H         6.0789601690        0.9827016636       10.0155184466
 H         5.6210184883        2.3719321553        8.9367111923
 H         3.8109498457        0.5679965499        6.2871594934
 H         4.9707565105       -0.3067074737        5.0795433585
 H         8.5175247433       -1.1999217954        6.6548982374
 H         7.3639803090       -0.2151506256        5.6287366636
 H         7.1010817626       -2.0323075144        5.8247417806
 H         5.9130459716       -1.7713316839        9.3253188021
 H         7.0184486281       -2.6615960282        8.2366760280
 H         7.4779741955       -1.1091037325        9.2759592376
 H         2.4886868221       -1.7054530217        6.1352485305
 H         2.4553572524       -0.5985497498        4.6616229807
 H         0.7396775892       -3.9291730378        1.9683223559
 H         0.6113586785       -5.2866562994        3.1833404331
 H         4.3647257934       -4.5363655178        2.7603192350
 H         3.2727227347       -3.5246844430        1.8897600714
 H         2.7536972265       -5.2019807165        2.5822373878
 H         2.3126984852       -4.8592103210        5.6661411246
 H         4.0105670830       -4.9029042984        5.1211682947
 H         3.5042682987       -3.7212306560        6.1070504197
 H        -1.1163029166       -3.6946347133        4.2919269210
 H        -1.6728033625       -4.6928847838        2.9108147817
 H        -1.4994072101        0.7003905328        5.4570679001
 H         0.0530224101        0.2260094982        4.8770763422
 H        -4.3248321248       -0.9476073358        3.3783862912
 H        -3.9248506410       -2.2887437293        2.3868679963
 H        -3.5434153235       -0.8249868548        1.7907114371
 H        -2.8322273135       -2.6775167004        5.1047651708
 H        -1.3602367660       -1.8345885194        5.3311432071
 H        -2.8166570086       -1.0539237722        5.5297721807
 H        -1.1683729783        2.6465100432        3.6069581668
 H        -0.3229454650        2.7686841005        5.2971717706
 H         4.4734302468        2.7811545542        1.8868357691
 H         3.3192826905        1.3655687726        1.9852435570
 H         0.3259685283        4.7902521537        4.4011537447
 H        -0.1324596193        4.6162140485        2.6335006377
 H         1.2107875412        5.5672926294        3.0486229675
 H         3.8242994445        4.1448208547        3.8411790847
 H         2.7610527735        4.3884436278        5.1222204524
 H         3.2866400661        2.7362112592        4.6411705534
 H         4.3045625905        1.6137616473       -0.4826973588
 H         3.5428861148        3.2425582954       -0.4612109479
 H         0.2262663979        2.6684762538       -1.3253461464
 H         0.4766315812        3.0687611804       -2.8613315881
 H         4.2093301463        1.6882030312       -2.5013398529
 H         2.8564655137        2.5865668900       -3.3066297072
 H         3.4255575585        0.9480001372       -3.8460240709
 H         3.8297755217       -0.4760550473       -1.4502357354
 H         2.1641219957       -1.1503613068       -1.3040184729
 H         2.8640085361       -1.0660513327       -2.7732607464
 H        -1.7362376879        3.4088775036       -2.8233974479
 H        -1.5235925562        2.1145838148       -3.9664251743
 H        -5.6056211071        0.4512081064       -4.5948012817
 H        -4.1957134763       -0.3690610838       -4.1249002565
 H        -5.5912695167        3.1082472871       -1.5130219029
 H        -4.0587882022        3.7698012828       -1.0251519642
 H        -4.5757641709        2.2849649847       -0.4661956943
 H        -3.3618006165        3.6291862584       -3.7802391866
 H        -3.6046480283        2.3011614883       -4.6921132263
 H        -4.9932632488        3.3143828280       -4.2575476561
 H        -7.0837655499       -1.4319784892       -3.3660578638
 H        -5.5734511672       -2.1836588388       -2.9312664291
 H        -5.2268960197       -1.4730880532       -8.9790166318
 H        -5.4683837590        0.2112962361       -8.9848155010
 H        -6.8600957229       -4.1152265955       -6.6057827528
 H        -5.4429461323       -3.2753681429       -7.4814555893
 H        -6.9931867348       -3.2547967838       -8.2072765463
 H        -8.7031384262       -2.6151750099       -5.3708017050
 H        -8.4695118737       -0.9239888327       -5.7428115801
 H        -8.8594649613       -1.9111843775       -7.0048123228
 H        -3.9295745351        0.3262407127       -6.8928369914
 H        -3.7936095886       -1.4273878247       -7.0130505267
 H        -2.2969104640        3.8408331984       -8.4359189751
 H        -3.5461271334        2.7477234840       -8.8014550136
 H        -3.6941510286        3.4461668864       -7.3049166028
 H        -0.3849565078       -1.0674190804       -7.7424037172
 H        -0.7270600405        0.0146617370       -6.3675458540
 H         0.4690412623        0.4779831809       -7.6653520917
 H         0.1671015074        1.6468028841       -9.3060963415
 H        -0.9799892992        0.5231832644      -10.3180338187
 H        -1.4685042066        2.1869137743       -9.9599833691
 Na       -0.7700784941       -0.0357459013       -0.2070086218
