155

 C         8.7671136490       -2.6588633487        0.7368700833
 C         8.0448995944       -2.0093374120       -0.3956243427
 C         8.6066661938       -1.9130175838       -1.8272232365
 C         7.6142263360       -2.4324134109       -2.9716436319
 C         6.2352731652       -1.7611403268       -2.9561930396
 C         9.0152385392       -0.4560156646       -2.0108278209
 C         9.9091663344       -2.6732471685       -1.8606615530
 O         6.9918932486       -1.5022256649       -0.1601914562
 O         8.0859843553       -3.1839178244       -3.8453051135
 C         5.4458236701       -2.2081743787       -4.1927686992
 C         4.3380065528       -3.1356157802       -3.7708336499
 C         3.3336274545       -3.7571109014       -4.7372391118
 C         1.8786159743       -3.2769865946       -4.5230683826
 C         1.0343217353       -4.0729653205       -3.4191050024
 O         4.2668188200       -3.5533048023       -2.6151139022
 O         1.4780278813       -2.2496249948       -5.0083158172
 C         3.6462737336       -3.3202134526       -6.2039586401
 C         3.4886242696       -5.3331952513       -4.6489403099
 C        -0.4607569087       -4.0186431841       -3.6498522867
 C        -1.1281120886       -3.0125465682       -2.7097369847
 C        -2.6695627186       -2.9678284930       -2.5241181737
 C        -3.0500003023       -3.8426126393       -1.1869316650
 C        -3.4076389630       -5.4001940024       -1.2633747423
 C        -3.0078654201       -1.4599992649       -2.4713123942
 C        -3.3371219944       -3.5348934641       -3.8787373979
 O        -0.5095318761       -2.1937809952       -2.0775476131
 O        -2.9513822668       -3.3355481870       -0.0949753885
 C        -3.1488971310       -6.0208990480        0.1055678674
 C        -1.5880334611       -6.1709779940        0.5756840013
 C        -1.2848431723       -6.8190871201        1.9887906395
 C        -0.5366303492       -5.6081956505        2.6889688109
 C         0.9300531307       -5.3314343462        2.4044209363
 O        -0.7180475840       -5.6181628987       -0.0380821540
 O        -1.1188896133       -4.9074868824        3.5015503320
 C        -2.5765033890       -7.2663665308        2.7891071087
 C        -0.4389090816       -8.0502438380        1.5370320934
 C         1.4327485762       -3.9549592823        2.8641061013
 C         0.8707599120       -2.8403239651        2.0500728872
 C         1.6052530160       -1.4079324543        2.0444051841
 C         0.4221561988       -0.3950694667        2.1427132516
 C        -0.3522635345       -0.3761967244        3.5428629291
 C         2.5431594605       -1.1545111290        3.2251224309
 C         2.3343372353       -1.2204699115        0.7444601587
 O        -0.1588446740       -3.1101362812        1.4507814024
 O         0.0170755823        0.3062584437        1.2605437703
 C        -1.4837434702        0.6433893421        3.4536951805
 C        -2.6107579642        0.1616041804        2.4927828633
 C        -3.7497905381        1.1220469918        2.0091357914
 C        -3.1234453738        1.6151301156        0.6604543757
 C        -3.4349107412        3.1273480746        0.2562502796
 O        -2.6296944415       -1.0360862028        2.0599220967
 O        -2.6931768627        0.8237983050       -0.1919330874
 C        -5.0959092555        0.5522902119        1.6570557698
 C        -3.8499310061        2.3287042226        3.0471402456
 C        -2.6212434369        3.4871755187       -1.0803953101
 C        -1.9906485811        4.9067490896       -0.8758703357
 C        -2.3740074497        6.2331717558       -1.7388899395
 C        -3.4090232322        6.8966449851       -0.6348782710
 C        -3.0590480370        7.9712516297        0.2653451459
 C        -1.1031671616        7.0749396495       -1.9705611988
 C        -3.2000219929        5.9612248786       -2.9869891288
 O        -1.1998585710        5.1131888008        0.0265161400
 O        -4.5821419673        6.5022577615       -0.6754019152
 C        -4.0634579093        8.2367858810        1.4617277221
 C        -4.5392708977        9.8067766078        1.5580906021
 C        -5.5960863820       10.1208510860        2.7574776768
 C        -4.9615778515        9.4141027440        4.0803038389
 C        -4.0883702081       10.2464823444        4.9947608384
 O        -4.1340334732       10.6018487593        0.7699363741
 O        -5.2214658397        8.2443495054        4.3637276819
 C        -5.7401178680       11.6228550683        2.8619340472
 C        -6.9191377419        9.4015901895        2.4749591285
 H         8.0830317119       -2.6952437405        1.6306127695
 H         8.9311070686       -3.7151777213        0.4688473037
 H         9.6768768890       -2.1969190827        0.8950674132
 H         5.7376647778       -2.1024428206       -2.0083975722
 H         6.3334518706       -0.6711216738       -2.8283536183
 H         8.0649236947        0.1560024596       -1.9036334062
 H         9.3921459657       -0.1943163976       -3.0580899225
 H         9.5753887084       -0.0823413832       -1.1281970954
 H         9.7015417560       -3.6901796904       -1.7160759837
 H        10.2701057690       -2.6974482071       -2.9257646129
 H        10.7839810437       -2.3720608798       -1.1540677666
 H         4.8549808772       -1.3816169769       -4.6192498843
 H         6.0076059223       -2.7970389604       -4.9184501974
 H         1.3258583379       -5.0691589378       -3.2940453594
 H         1.2298615480       -3.5662357303       -2.4179819422
 H         3.7716108346       -2.2403409839       -6.2582114205
 H         3.0073195195       -3.7114066474       -6.9311744686
 H         4.6487970264       -3.6724715412       -6.5328225988
 H         3.8331145098       -5.7607871631       -3.6640467768
 H         2.5871081749       -5.7767569201       -5.0276393847
 H         4.2453500677       -5.6682675784       -5.3776371538
 H        -0.8717868561       -5.0242504621       -3.5797878374
 H        -0.7025832176       -3.5690556603       -4.6243819413
 H        -4.4399654725       -5.5425136932       -1.4788672989
 H        -2.7397874239       -5.7244956937       -2.0557182259
 H        -2.3566581124       -0.9502145339       -3.1346364162
 H        -2.7636952510       -1.0622749374       -1.4778050175
 H        -4.0094040051       -1.2080418334       -2.7579857862
 H        -3.0939418126       -2.8900416867       -4.7105102503
 H        -3.0565258838       -4.5568881521       -4.0151640552
 H        -4.4145147629       -3.6202463777       -3.6153495012
 H        -3.5709674153       -5.3628747279        0.8868475069
 H        -3.7708511471       -6.9229591488        0.0585375264
 H         1.3852223171       -6.0506722672        3.0731743170
 H         1.1932091194       -5.5376309730        1.3198419990
 H        -2.9693989944       -6.3648463781        3.3156736676
 H        -2.2012931904       -8.0318992659        3.4157785660
 H        -3.2832262947       -7.6919557312        2.1121758193
 H         0.4454236225       -7.6787192229        1.0635066169
 H        -0.1332108272       -8.7838253206        2.3544246211
 H        -1.0723164705       -8.6081409008        0.8589690360
 H         2.5336462906       -4.0219363453        2.7641109041
 H         1.2095804113       -3.9425491665        3.9448341803
 H        -0.7142749181       -1.4233760600        3.8395412998
 H         0.3408682949        0.0097148201        4.2169473534
 H         1.9861928517       -0.9276278667        4.1758876763
 H         3.1367556971       -0.2357147716        3.0240210192
 H         3.2214090608       -1.9547680919        3.2888016439
 H         1.9527637538       -1.9366903966        0.0105283303
 H         1.9305102956       -0.2619962284        0.2788916878
 H         3.4006066347       -1.2130786022        0.8113947625
 H        -1.9371188484        0.9127206886        4.4518989891
 H        -1.1091473756        1.5765519940        2.9394618771
 H        -4.5824138646        3.1000416751        0.0038711708
 H        -3.2630795223        3.7499183208        1.0577308699
 H        -5.8516698449        1.2824642874        1.9374503927
 H        -5.2123252912       -0.3618512768        2.3377676603
 H        -5.2426341935        0.3484775555        0.5574136270
 H        -4.3307656037        1.8889165434        3.9411060036
 H        -2.8500801024        2.6680682127        3.2926512705
 H        -4.3864103370        3.1682312649        2.5839471908
 H        -3.1975074442        3.5242277825       -1.9540560231
 H        -1.7438060400        2.8610744170       -1.2228184071
 H        -2.0797376291        7.7241086011        0.4989642335
 H        -3.1707776065        9.0036953542       -0.2183046471
 H        -0.2473122733        6.5609442122       -2.4616987933
 H        -0.7252048246        7.4486020173       -1.0107092909
 H        -1.3738513650        8.0151944703       -2.5037589260
 H        -4.1803742279        5.5033936303       -2.5293850650
 H        -3.6824053743        6.7895915992       -3.4549580897
 H        -2.7932924655        5.3095196406       -3.7435280820
 H        -4.9718335680        7.7071203300        1.3103943204
 H        -3.6089199855        7.7998962974        2.3770629318
 H        -3.1101999998       10.6427697473        4.6263268422
 H        -4.6204429191       11.0857194210        5.3840577557
 H        -3.7795643137        9.5963448009        5.7658441393
 H        -6.4029117541       11.8377542148        3.6977199634
 H        -6.3296178297       11.8874793896        1.9642316411
 H        -4.7768820197       12.0851967156        2.8378167146
 H        -7.1233070233        9.4190260958        1.3396512277
 H        -7.0317252058        8.3618197508        2.8139001910
 H        -7.6925768344        9.9742762575        2.9473011262
 Na       -1.4314299004       -1.6493087290        0.0950507528
