155

 C         5.7817691139        1.3798798687        8.6990319338
 C         6.4525536451        0.7175325988        7.4684210890
 C         6.3714093723       -0.8408811520        7.4386671125
 C         4.8231409839       -1.2677605673        7.1388903465
 C         4.2654555506       -0.5309775931        5.9389622448
 C         7.2295995419       -1.4490026054        6.2722945084
 C         6.7766110877       -1.5260902279        8.7509969208
 O         6.8256223546        1.3976144793        6.5459531848
 O         4.1949946580       -2.1132619572        7.7545799968
 C         3.1051671252       -1.2513748534        5.2474021759
 C         3.5022637851       -2.2384847232        4.1769806409
 C         2.7784579357       -3.6424297194        3.9716363847
 C         1.1729027682       -3.4984094507        4.0952027304
 C         0.3214332737       -4.1074286041        2.9514992012
 O         4.4252178071       -1.9257272557        3.4062713736
 O         0.7179417801       -2.9150641617        5.0566659234
 C         3.3690454070       -4.3033845000        2.7242004385
 C         3.2466848336       -4.5304046102        5.1428163345
 C        -1.1838100183       -3.8572641367        2.8952450254
 C        -1.3980184709       -2.3275329208        2.4863128957
 C        -2.0125672637       -1.3139672455        3.5181170120
 C        -1.3771925717        0.0973723792        3.2316515164
 C        -1.2074359759        1.0163792478        4.4663046308
 C        -3.5416301945       -1.2424617036        3.1242245754
 C        -1.9837331845       -1.7990122121        4.9619184916
 O        -1.0208391037       -1.9375823751        1.3710752683
 O        -1.2433671494        0.6294853565        2.1384863670
 C        -0.3597891333        2.2923641645        4.3278486889
 C         1.0226433140        2.0275098745        3.6318524484
 C         1.6702289288        3.3847760367        3.1254690216
 C         2.2862969057        3.3550291956        1.6409593508
 C         3.4348033193        2.3058930334        1.4784535007
 O         1.5178345194        0.9131912357        3.3982719825
 O         1.8790942055        4.0991937388        0.7960749757
 C         0.8262968380        4.8060454207        3.2511597476
 C         2.8305911800        3.5723279252        4.1606929206
 C         3.6418081448        1.9146459533        0.0585211745
 C         2.2976247934        1.4966932709       -0.6621199763
 C         2.2632133684        0.9555541213       -2.0879523852
 C         0.7624516381        0.9844602137       -2.6167854457
 C        -0.1173333117        2.2676913050       -2.3190334587
 C         3.1504651198        1.8265098736       -3.0230590678
 C         2.6175499808       -0.5667864558       -1.9256447584
 O         1.3305526379        1.5381569089        0.1054139817
 O         0.3115177130        0.1333814613       -3.3002901463
 C        -1.5261978017        2.2187988449       -2.7713920222
 C        -2.5746986871        1.4805996198       -2.0568064981
 C        -4.0381699215        1.9590020651       -2.4488281186
 C        -5.0801961543        0.7898179520       -2.4375816832
 C        -5.2176898425        0.0990527733       -3.8269818162
 O        -2.3221112448        0.6096290734       -1.2173757588
 O        -5.7540293465        0.4971882221       -1.4762067012
 C        -4.4309815871        2.9394426341       -1.2867043551
 C        -4.2718759808        2.6887871563       -3.7484016215
 C        -5.7957585228       -1.3326396425       -3.8135785855
 C        -5.6293322379       -2.1216154749       -5.0991086626
 C        -6.6106205428       -1.9401111207       -6.2456526699
 C        -6.3682153844       -0.6438317602       -7.0087710099
 C        -5.3116278289       -0.6897860465       -8.1503648165
 C        -6.5783371425       -3.2093921681       -7.1879301897
 C        -7.9919884276       -1.9404555482       -5.6223010254
 O        -4.7387750556       -2.9800003612       -5.2199587918
 O        -6.8557068464        0.3424185222       -6.6803656892
 C        -3.9057224985       -0.4596342386       -7.5232156383
 C        -2.7932869312       -0.3373706513       -8.5787527831
 C        -1.6474815517        0.7378077205       -8.3343891683
 C        -2.1552848394        1.9982023144       -7.5184862145
 C        -2.9567135732        3.1031221930       -8.2408402352
 O        -2.7451321359       -1.0614037038       -9.5316918123
 O        -2.0308087401        1.9946788886       -6.2865047092
 C        -0.5648670843       -0.0233019785       -7.4697192467
 C        -1.0751905954        1.0742060782       -9.6972603015
 H         4.9012449891        0.8259418408        9.1403810915
 H         6.4797747718        1.3182236936        9.5093611786
 H         5.4862861805        2.3872653175        8.5956104697
 H         3.7205587824        0.3167036557        6.4802553550
 H         5.0252583410       -0.2356221629        5.2693552587
 H         8.2129551723       -1.1292554099        6.6602858257
 H         6.9517326382       -1.0750215643        5.2846516721
 H         7.2302525244       -2.4830805616        6.3519302701
 H         6.1008806612       -1.2435638565        9.4696420084
 H         6.5805623970       -2.5923061305        8.6085880994
 H         7.6919667993       -1.1965765009        9.1537379993
 H         2.5784456486       -1.6307690492        6.1514333716
 H         2.4065012367       -0.5547031161        4.8173986236
 H         0.6833335902       -3.6783891334        2.0019010473
 H         0.6239369637       -5.1643066774        2.9771852272
 H         4.1639943241       -5.0505634671        2.9564023173
 H         3.8975316394       -3.5655921813        2.1807159549
 H         2.6214095963       -4.8270856016        2.1536746169
 H         2.6749424092       -5.4536757576        5.0410656875
 H         4.3378194172       -4.4991196244        5.3338563375
 H         2.9266401033       -4.0565118670        6.0999957374
 H        -1.7875638073       -4.1047005372        3.7756081876
 H        -1.5824761315       -4.4954399833        2.1333609946
 H        -2.1738298093        1.2213040855        4.8575366097
 H        -0.7371834356        0.5789395823        5.2748738078
 H        -4.1123909439       -0.8154868010        3.9676039765
 H        -3.8557048300       -2.3550494582        3.0593373804
 H        -3.8020795988       -0.8537524491        2.1310356326
 H        -2.5105668296       -2.7372631223        5.0374234524
 H        -0.9501433517       -1.9809925970        5.3271898900
 H        -2.5114235702       -1.1449662245        5.6831680809
 H        -0.8395817681        3.0242685989        3.6641250249
 H        -0.1014153557        2.6051447764        5.3215954754
 H         4.3854271793        2.7306593233        1.7802232167
 H         3.1404300870        1.4011585759        2.0698661460
 H         0.4317039935        4.9481257757        4.2565867621
 H        -0.0143933234        4.7787653189        2.5025903965
 H         1.5205748658        5.6390168964        2.9255005079
 H         3.4310107236        4.4755220068        3.9629014504
 H         2.4973115837        3.7435244206        5.1444526629
 H         3.5195490755        2.7716462508        4.0996427588
 H         4.3204001166        1.0755544393       -0.0002745743
 H         4.0415563232        2.7973159397       -0.4943009464
 H         0.0360393931        2.7363667074       -1.3170845960
 H         0.3703464026        3.0311868347       -2.8852616098
 H         4.0392386374        1.2950779267       -3.3278768902
 H         3.3249928641        2.7660544081       -2.5378424799
 H         2.6587448209        2.0371025508       -3.9107355479
 H         3.6958371097       -0.6963158584       -1.7809160105
 H         2.0864440486       -1.1530627433       -1.1646296731
 H         2.3955527384       -1.1369132044       -2.7605705520
 H        -1.8942798101        3.2498289261       -2.8412371556
 H        -1.7202241487        1.8590301409       -3.7568724646
 H        -5.8672015059        0.8320686669       -4.3910770548
 H        -4.2259388604        0.1914807596       -4.2807353092
 H        -5.3864063975        3.4627221805       -1.2844239723
 H        -3.7027375886        3.7065517021       -1.2088699342
 H        -4.5284876749        2.5154822791       -0.2244916362
 H        -3.9803825747        3.7255317507       -4.0501849574
 H        -3.8847851381        2.1213831188       -4.6217724399
 H        -5.3428755419        2.5857818316       -3.8519213329
 H        -6.8665963221       -1.2648456419       -3.7624233406
 H        -5.6035590387       -1.8471558667       -2.8658312158
 H        -5.2762975333       -1.6670992635       -8.6772539143
 H        -5.5234637502        0.0119354739       -8.9900286831
 H        -6.9012072437       -4.0605050965       -6.6197773177
 H        -5.6198446763       -3.3912499050       -7.7075948519
 H        -7.2760387401       -3.0328842767       -8.0172943737
 H        -8.0236153501       -2.8330571171       -5.0515597889
 H        -8.2480247541       -0.9829215403       -5.0387215245
 H        -8.8333335348       -2.1033211276       -6.2702026040
 H        -3.9897405052        0.4045513393       -6.8338021708
 H        -3.6753315793       -1.3327648341       -6.9271269018
 H        -2.3635155190        3.5619887692       -9.0091617122
 H        -3.8569547769        2.6019374985       -8.7184908702
 H        -3.4334576988        3.7872709265       -7.5546761925
 H        -0.2058347766       -0.8373339013       -8.0702443574
 H        -1.0332863219       -0.4069775317       -6.5813780319
 H         0.2384499487        0.6619276917       -7.3542699561
 H        -0.0486956497        1.2876452296       -9.6891694325
 H        -1.3250081369        0.3289157318      -10.4523998595
 H        -1.5372492058        2.0360619181       -9.9819952411
 Na       -0.4625494088        0.1131502599        0.2389257942
