155

 C         5.9200183138        1.5160263460        8.4070639345
 C         6.3533836805        0.5886662159        7.2983210724
 C         6.2815147194       -0.9226817025        7.4208559822
 C         4.8420347723       -1.3644757399        7.0650113147
 C         4.1376943962       -0.5918117414        5.8529220598
 C         7.1677815909       -1.6479722430        6.3586320169
 C         6.7529636323       -1.3600860938        8.8689379593
 O         6.9616283539        1.1155582823        6.3657851752
 O         4.2688631074       -2.2286544231        7.7221993379
 C         2.9571480619       -1.4497692822        5.2729296866
 C         3.4228082976       -2.3192966414        4.0671511002
 C         2.7714977101       -3.7965510662        3.9483360385
 C         1.3026312092       -3.6259297556        4.0061337053
 C         0.4405682559       -4.0541143852        2.7797533883
 O         4.3299174719       -1.9345337060        3.3878688286
 O         0.7025021989       -3.2095189476        5.0010521166
 C         3.2955335322       -4.4420790735        2.6071139769
 C         3.1911391653       -4.6384917821        5.2257634763
 C        -1.0427166286       -3.5292238805        2.8176447968
 C        -1.2851085434       -2.1000669216        2.4279752814
 C        -2.0457477290       -1.1559801858        3.4783579027
 C        -1.4063963549        0.3430347389        3.4821522722
 C        -1.2726386943        1.1319079476        4.6963828372
 C        -3.6009388986       -1.0313130356        3.1393912827
 C        -1.8329511847       -1.6859381981        4.9112224300
 O        -0.8565141771       -1.7992047260        1.3138910593
 O        -1.0396059880        0.7804601104        2.3974761733
 C        -0.6449422984        2.5189609589        4.2070832284
 C         0.9275542964        2.1594941559        3.5092684049
 C         1.7875589634        3.4444284446        3.0869217624
 C         2.4707837575        3.3325651861        1.6323739729
 C         3.5928959716        2.2850512555        1.4524079900
 O         1.4031129492        1.0817952021        3.5020808999
 O         1.9965766166        3.9856654713        0.6938866656
 C         0.9027566557        4.6634314972        3.0944545292
 C         2.9328578745        3.4340607738        4.1268795584
 C         3.6303270940        1.7653811766       -0.0700440294
 C         2.2408006835        1.3505933626       -0.5848706040
 C         2.1461430035        0.9232152806       -2.1045112337
 C         0.6503218467        1.0698054323       -2.6199661464
 C        -0.1661236806        2.3004263841       -2.3614619695
 C         2.9649926675        1.7946910880       -3.1407067291
 C         2.6025362208       -0.5597589002       -2.3109779570
 O         1.2855577242        1.3380669555        0.1565353367
 O         0.1118122036        0.1144961238       -3.1587454975
 C        -1.5208377389        2.1605377095       -3.0494189706
 C        -2.6035496008        1.6827576957       -2.0868950567
 C        -3.9964546191        2.1517665088       -2.2817728656
 C        -5.0097216019        0.7182257346       -2.3836236948
 C        -5.0694024505        0.0298095044       -3.8482302724
 O        -2.2786628330        1.1031261716       -1.0847004062
 O        -5.5734207751        0.2324403946       -1.4422010979
 C        -4.3132307680        2.9343949490       -1.0372795050
 C        -4.1337930779        2.9363917048       -3.5521299955
 C        -5.5085943976       -1.4395285937       -3.6004075900
 C        -5.5372030663       -2.2642180528       -4.9311729732
 C        -6.7249418683       -2.0722806664       -6.0200029446
 C        -6.3610557031       -0.7423570434       -6.7206506502
 C        -5.3862800550       -0.6365926786       -7.8636846361
 C        -6.6403898102       -3.2300325572       -7.0863693877
 C        -8.0735462804       -1.9087628718       -5.3443582020
 O        -4.6380845596       -3.0079042001       -5.0959234174
 O        -6.8090136083        0.4265920937       -6.3742930578
 C        -3.9116711414       -0.4298514986       -7.3686208170
 C        -2.9560598564       -0.3031528258       -8.5709961021
 C        -1.7502225341        0.6939250524       -8.4235041411
 C        -2.2003637143        2.0079657258       -7.6909444244
 C        -2.9322357604        3.0081989553       -8.5567016279
 O        -3.1124850823       -0.9947508827       -9.5438824489
 O        -2.0142929518        2.1456839996       -6.4869180163
 C        -0.6246165017        0.0000320243       -7.5285170139
 C        -1.1676859419        1.0050221838       -9.8219869929
 H         5.1027321314        1.1909682947        9.0270097339
 H         6.7606063868        1.8285924010        9.1227429817
 H         5.5659704492        2.4693447026        7.9338736223
 H         3.7738130013        0.3212956608        6.2267489580
 H         4.8238645761       -0.3451803781        4.9662326423
 H         8.1385689118       -1.2334820981        6.3148382763
 H         6.5535802799       -1.6506432020        5.4901967583
 H         7.2367432286       -2.7093112147        6.6525738834
 H         6.5117047927       -0.6464357833        9.8024896420
 H         6.4203398181       -2.3436563071        9.0748779420
 H         7.8482925616       -1.3047875628        8.6971009136
 H         2.4369272643       -2.0311025887        6.0577647565
 H         2.1477912749       -0.6884534798        4.9056904254
 H         0.9051138099       -3.6453782919        1.8634087988
 H         0.4592847553       -5.1750590396        2.6748143559
 H         4.3243220727       -4.6563021342        2.6145217168
 H         3.0832343252       -3.7515008980        1.7400695321
 H         2.7520202161       -5.3707785214        2.4962820517
 H         3.4814859041       -5.6593695220        4.8776606412
 H         3.8813623725       -4.0568127923        5.8177897780
 H         2.3987820620       -4.7734245076        5.9686187790
 H        -1.5576912230       -3.9126213665        3.7041818976
 H        -1.6151860654       -4.1457165880        2.0363456339
 H        -2.2524855599        1.2359936671        5.2905321209
 H        -0.5594911370        0.5995956978        5.4685044856
 H        -3.9932203669       -0.0414905315        3.4889567338
 H        -4.1944414648       -1.7682067283        3.6112026253
 H        -3.7332716450       -1.1186701617        2.0666268104
 H        -2.2816270149       -2.7161696313        5.0812104598
 H        -0.7943846345       -1.7693091288        5.2689129808
 H        -2.4175994282       -1.0575657231        5.6055812503
 H        -1.2561499218        2.8226351680        3.3631881795
 H        -0.4422350804        3.1778021084        5.0609142180
 H         4.5328962450        2.8081136859        1.6292721467
 H         3.3449055352        1.4728659093        2.1201343191
 H         0.4706379199        4.9064786789        4.0526549877
 H         0.0922490640        4.3502415949        2.4603180459
 H         1.4764620469        5.4747978122        2.7241686187
 H         3.3904164468        4.3957208806        4.3153897026
 H         2.5357134461        3.1480530272        5.1535350980
 H         3.7939412298        2.7742689098        3.8468484090
 H         4.2468460166        0.8833155045       -0.2665823154
 H         3.9134300619        2.5473343994       -0.7443779778
 H        -0.2058066498        2.3896450536       -1.2882409460
 H         0.4665833112        3.2045963968       -2.6577699560
 H         3.8148074956        1.1889607597       -3.5124704996
 H         3.2659380511        2.7274722572       -2.6625680388
 H         2.4085872117        2.1148548906       -4.0920279188
 H         3.6441091897       -0.7421019222       -2.0541270210
 H         2.1119498075       -1.1962525560       -1.5435195884
 H         2.3708856221       -1.1409360388       -3.2873061808
 H        -1.8055747394        3.1518393294       -3.3861608661
 H        -1.4808088826        1.5111197452       -3.9482366625
 H        -5.9711868657        0.4790224107       -4.2302631690
 H        -4.1867158804        0.2765096986       -4.4495881876
 H        -5.3242837391        3.2710480741       -1.1025239201
 H        -3.7284952413        3.8565415000       -0.8326074390
 H        -4.4769753854        2.4084784033       -0.1856055174
 H        -3.6666544162        3.8177622975       -3.3541962199
 H        -3.7057651213        2.5350932108       -4.4805086219
 H        -5.1303796824        3.2389087168       -3.8552916420
 H        -6.4580439636       -1.3984277179       -3.0099788856
 H        -4.8574928003       -1.9330271205       -2.9245113900
 H        -5.3811632102       -1.4559087491       -8.5386210879
 H        -5.5743873530        0.2067318534       -8.5057899360
 H        -7.0549503224       -4.1511653295       -6.6623672110
 H        -5.6304328872       -3.5122429880       -7.3006599483
 H        -7.0876846307       -2.9839510427       -8.0141861105
 H        -8.3850052853       -2.6795161454       -4.5940326177
 H        -8.0785670318       -0.9234559645       -4.9909421680
 H        -8.9227002636       -2.0983099815       -6.0310810352
 H        -3.8505245172        0.3758423480       -6.6151158070
 H        -3.4994748759       -1.3619095595       -6.8948757763
 H        -2.2483391453        3.4036559458       -9.3455641358
 H        -3.8061276448        2.5597632114       -8.9741938734
 H        -3.3266056619        3.8286833533       -7.9181529145
 H         0.0988169019       -0.5630326380       -8.1640446020
 H        -1.1847649380       -0.7331506559       -6.8967963325
 H        -0.0905676833        0.8071164151       -6.9642829097
 H        -0.5585158469        1.9371306981       -9.8288745686
 H        -0.5200766609        0.2155684185      -10.1327991858
 H        -1.8857903442        1.3096396697      -10.5575573311
 Na       -0.5119263400        0.0844299203        0.2085119040
