155

 C         9.2463207557       -2.4129405529       -4.9313742723
 C         8.3821814701       -2.7961375791       -3.7058842801
 C         7.2882798988       -1.7956352333       -3.1474763751
 C         6.2078374134       -1.9244304917       -4.2416332917
 C         4.7711281956       -2.3383482683       -3.8744176449
 C         6.8587888158       -2.2399161668       -1.7484963507
 C         7.7469985809       -0.3246070986       -3.1568448672
 O         8.4306417199       -3.9689109577       -3.3318344951
 O         6.3597800007       -1.5573897491       -5.3712715026
 C         3.7782155710       -2.3287346529       -5.0028986171
 C         2.3594440594       -2.1989416164       -4.3624992178
 C         1.1431307330       -2.9363971284       -4.9533232384
 C         0.3009526697       -3.6295024076       -3.8659664961
 C        -0.9799502531       -2.9712388701       -3.3536675959
 O         2.1383948778       -1.3900647196       -3.5241115018
 O         0.7346739562       -4.6448844206       -3.4030772926
 C         0.3771599492       -1.7986587280       -5.6359471137
 C         1.3688173898       -4.1197595495       -5.9282629652
 C        -1.5892864373       -3.6948869588       -2.1675982933
 C        -2.3435133612       -2.8510169772       -1.2228995740
 C        -3.7564177527       -3.4590638797       -0.6090532321
 C        -3.3927901761       -4.0249365994        0.7600408058
 C        -3.5494783578       -5.5597169779        0.9810508204
 C        -4.7058505784       -2.2300119486       -0.5521200497
 C        -4.4495122834       -4.4478477026       -1.5744828947
 O        -1.8532443023       -1.8833385616       -0.7198971917
 O        -3.1121515408       -3.2724212530        1.6645982131
 C        -2.3650511610       -6.1447371504        1.7533511475
 C        -1.0867337631       -6.5090823003        0.9851353247
 C         0.1608278158       -6.8159011601        1.8193703280
 C         0.7643317020       -5.4329879841        2.2383959394
 C         1.5843565531       -4.7458839484        1.1574945684
 O        -1.0121578122       -6.3437775788       -0.2198064544
 O         0.5086485643       -5.0081153570        3.3387299785
 C        -0.2247035659       -7.6154016915        3.0201369482
 C         1.0959955351       -7.6049678634        0.9179191288
 C         2.2272402059       -3.3935723613        1.5508206359
 C         1.0960961625       -2.4119748955        2.0003184759
 C         1.4552562439       -1.3871557590        3.0941923431
 C         0.4949755540       -0.2253141017        3.0426204180
 C        -0.0849420823        0.3899145107        4.4064563246
 C         1.2914722440       -2.1570354549        4.4354844970
 C         2.9531502401       -0.9271985857        3.0489749838
 O         0.0023432719       -2.6909794807        1.6041448189
 O         0.0420649734        0.1485105465        2.0197428671
 C        -0.9672023922        1.6793102251        4.1985702093
 C        -2.2472178122        1.3721020520        3.4619790565
 C        -2.9810409400        2.4532811573        2.6124606094
 C        -2.6145430631        2.4131461337        1.0277134914
 C        -2.9167480500        3.7966726089        0.2351288718
 O        -2.7448939209        0.2370512849        3.3548219922
 O        -2.4970962403        1.3708846352        0.4443441569
 C        -4.5639730766        2.1377265612        2.5575878526
 C        -2.7479927284        3.9429888668        3.1568697071
 C        -2.8653491566        3.5790323958       -1.2564956293
 C        -2.5427687516        4.8136294961       -2.1033398528
 C        -3.7446892987        5.6820219390       -2.5508116923
 C        -3.9675482297        6.8434362833       -1.4643289667
 C        -2.7508272515        7.3786388944       -0.7555456777
 C        -3.2688031797        6.3629803032       -3.8485802732
 C        -5.0641194514        4.9814777600       -2.8283607263
 O        -1.4119254381        5.1176143937       -2.5030235087
 O        -5.0369777827        7.3941395347       -1.3752204498
 C        -3.1453332241        8.0116944433        0.6155582521
 C        -1.9659212606        8.5283635168        1.4701596080
 C        -2.1942385450        8.9777619697        2.9212109494
 C        -2.1860517019        7.6269271572        3.7814569750
 C        -0.8614658363        7.3442612929        4.7129382818
 O        -0.8303886867        8.4349934829        1.0571230970
 O        -2.9577463617        6.7857107601        3.4748085720
 C        -1.0486824306        9.9658014784        3.2337210604
 C        -3.5216853981        9.6799545567        3.0041549861
 H        10.0293363901       -3.1400138341       -5.1095277102
 H         8.5153232365       -2.2264752590       -5.7536703164
 H         9.7584455815       -1.5173554150       -4.7411644474
 H         4.7234732533       -3.3630714331       -3.4576562158
 H         4.3511171960       -1.5070525481       -3.2060676184
 H         7.2647701753       -1.6034327469       -1.0002077329
 H         7.1868161115       -3.3068055151       -1.6646332663
 H         5.7926840056       -2.1609407021       -1.4667820673
 H         8.2336181955       -0.0908194892       -4.1858447999
 H         6.9643782842        0.3820932877       -2.9601160398
 H         8.6156444789       -0.0929463391       -2.5595150700
 H         3.8795335896       -1.4607744969       -5.7077992112
 H         3.8187076678       -3.2842394740       -5.5740794928
 H        -0.8027952854       -1.9355610256       -2.9235737370
 H        -1.7441286467       -2.9343706977       -4.0931196603
 H        -0.1985198371       -1.1389105673       -4.9490538056
 H        -0.2533219292       -2.1872387837       -6.4296223526
 H         1.1096588085       -1.1566066490       -6.2251890067
 H         1.8311236309       -4.9626602929       -5.4011219651
 H         0.4895994775       -4.4632424514       -6.4213588360
 H         2.1390084892       -3.8227423403       -6.6530046795
 H        -0.7032186729       -4.1544559245       -1.6280203648
 H        -2.2544775928       -4.5179912658       -2.5679880003
 H        -4.3972316004       -5.8299850487        1.5749788215
 H        -3.6231002609       -6.1508384195        0.1190084430
 H        -4.9014050946       -1.8053018638       -1.5276730717
 H        -4.1187222791       -1.5030027673       -0.0985215157
 H        -5.6341961143       -2.3736372297        0.0408438522
 H        -4.2567568385       -4.1366597455       -2.6153587954
 H        -4.0722475560       -5.4423176754       -1.4888460047
 H        -5.5352389149       -4.3148108952       -1.4589297350
 H        -2.2693550553       -5.4200182352        2.5262938535
 H        -2.7190350516       -7.0187366674        2.3299989660
 H         2.3085304085       -5.4443531114        0.6580945491
 H         0.8289237889       -4.5213497953        0.4259558338
 H        -1.0509160249       -7.1126712281        3.5917003669
 H         0.5862888178       -7.6936150228        3.6930606549
 H        -0.6211310164       -8.5950991739        2.7938931155
 H         1.2191648281       -7.0098155646       -0.0610237043
 H         2.0898004718       -7.7676582935        1.2313406893
 H         0.7540689408       -8.5432498295        0.4818012466
 H         2.7353640842       -2.9470308815        0.7090314562
 H         2.9727762823       -3.4399227948        2.3449088838
 H        -0.7598965766       -0.3438354161        4.7379005622
 H         0.7826799723        0.5763603683        5.1100279851
 H         0.1877839010       -2.1522204507        4.6728078513
 H         1.8625037538       -1.6169747558        5.2505942170
 H         1.7578314430       -3.1101746327        4.3367046004
 H         3.1953509753       -0.7100007002        2.0439403113
 H         3.1501789903       -0.0546372591        3.7261980095
 H         3.5630671462       -1.7543077530        3.3280515385
 H        -1.1387727622        2.2134728340        5.1215638002
 H        -0.3398410752        2.3661506300        3.6932046505
 H        -3.9638415010        4.2076039347        0.5980342379
 H        -2.1957200321        4.5353870236        0.4658110503
 H        -5.2033882114        3.0039441099        2.6473600853
 H        -4.7791061725        1.6421308474        3.4836283128
 H        -4.8836014914        1.6328312026        1.7020822730
 H        -3.0522352841        3.8986070466        4.2346405644
 H        -1.7264240817        4.2160209185        3.0027521824
 H        -3.4027816937        4.5274210060        2.5807220824
 H        -3.7386423563        3.0840710944       -1.5125690643
 H        -2.0203750328        2.8606138865       -1.5326551845
 H        -1.7324706529        6.9475064091       -0.7893987490
 H        -2.6279421728        8.2721702564       -1.3546308821
 H        -3.0118346359        5.5820844573       -4.5702219448
 H        -2.3847800063        7.1004924024       -3.6630646997
 H        -4.0721375444        6.9623727297       -4.3296280391
 H        -5.4757258770        4.5037498462       -2.0079719321
 H        -5.6999628668        5.8107130522       -3.2627451704
 H        -5.0859676324        4.2457349131       -3.6735067717
 H        -4.0314353175        8.7803514725        0.5325396976
 H        -3.5030293655        7.2022830452        1.1604342605
 H         0.0610781206        7.6204689322        4.2291454139
 H        -1.0663975302        7.9469510442        5.5257146913
 H        -0.9056478128        6.3076703535        5.0325008856
 H        -1.0718126767       10.0811762961        4.3450508941
 H        -1.2182400506       10.9155346474        2.7267844640
 H        -0.0482686479        9.6736660458        3.0403917875
 H        -3.5350785600       10.6693281405        2.4649551646
 H        -4.3325477552        9.0158011662        2.7800782571
 H        -3.6398234727       10.0295850993        4.0886475507
 Na       -1.8773973012       -1.0847662385        1.4237789517
