155

 C         7.9142192670       -2.5191841956       -6.0390612670
 C         7.7489951748       -2.9296638411       -4.5769801238
 C         7.0038310140       -1.9067370096       -3.6596181750
 C         5.6593318949       -1.4985335481       -4.3894089704
 C         4.4581184016       -2.3228726746       -3.8690052413
 C         6.7992850315       -2.5226165631       -2.2236790109
 C         7.9510814498       -0.6627824440       -3.5447036725
 O         8.1752557469       -3.9708733292       -4.1890443828
 O         5.6087576553       -0.6961323079       -5.3113090261
 C         3.2911040042       -2.4355560431       -4.9450127844
 C         1.9341128100       -1.9674602788       -4.5393857830
 C         0.8030142318       -2.9014070281       -4.9094290826
 C         0.1896084650       -3.5697975591       -3.5487860896
 C        -0.7959332457       -2.6886921656       -2.7411514212
 O         1.7889343349       -0.8129174113       -4.1350595741
 O         0.6076855897       -4.6690823925       -3.2000883129
 C        -0.4132245127       -2.2258038974       -5.5500578176
 C         1.2031143314       -4.1437892931       -5.7824496092
 C        -1.9778781624       -3.5540164811       -2.2012625467
 C        -2.7131674943       -2.9127991520       -1.1029876269
 C        -3.8798109470       -3.6845626927       -0.2350741926
 C        -3.1000411926       -4.0630781873        1.0611405655
 C        -3.4191871541       -5.3061591842        1.9173601783
 C        -5.0163548482       -2.7420713686        0.1494077584
 C        -4.4340912561       -4.9078296694       -1.1048185704
 O        -2.5104211127       -1.7462561607       -0.8627364296
 O        -2.3815299350       -3.2377943234        1.6073869283
 C        -2.2226668927       -6.2706906594        2.2535267181
 C        -1.1670502149       -6.1189052823        1.2465438523
 C         0.2186569011       -6.7764387090        1.5937219318
 C         1.0524212764       -5.6005510204        2.2890345690
 C         1.7211475179       -4.6793291859        1.2925649431
 O        -1.3526310796       -5.4785988954        0.2806932357
 O         1.0796944454       -5.4784494615        3.5307366970
 C         0.0292608861       -7.9690454130        2.5574611412
 C         0.9406783116       -7.2720571798        0.2745564631
 C         2.3185614217       -3.4911893840        1.9454168134
 C         1.2538248903       -2.3448115668        2.0708849130
 C         1.4793070065       -1.3480317966        3.3085889910
 C         0.5758139986        0.0273000800        3.0710582778
 C         0.4240285837        0.9977064246        4.2589664956
 C         0.9106427777       -2.2139168320        4.5268642470
 C         2.9179749896       -1.0220407031        3.5503995849
 O         0.3310866971       -2.2524446848        1.2567325548
 O         0.0840855928        0.3495353502        1.9881463125
 C        -0.6936099489        1.9507498265        3.9508034705
 C        -2.0436094837        1.2545908230        3.4157435244
 C        -3.1088974459        2.1552538424        2.5780406366
 C        -2.7809415872        2.0324012256        1.0214891175
 C        -2.8041354948        3.3621740041        0.1389298844
 O        -2.4017726247        0.0981636430        3.6739538419
 O        -2.7579588727        0.9602964715        0.4782701533
 C        -4.6083125816        1.5452492044        2.7334188130
 C        -3.1056879843        3.6460260043        3.0287812982
 C        -3.1903193636        3.2646079957       -1.2977070990
 C        -2.7470615069        4.6607396000       -2.0635533660
 C        -3.8138102582        5.7001061126       -2.4700915911
 C        -3.9210552202        6.9035515137       -1.2246883141
 C        -2.5166423084        7.3837603108       -0.7689330046
 C        -3.3166814325        6.6821199572       -3.6823016581
 C        -5.2439033956        5.1439577292       -2.6986206891
 O        -1.5615298390        4.8061682491       -2.2734609720
 O        -4.9417504816        7.0300648481       -0.5811361468
 C        -2.6723209693        8.0995681770        0.6164196299
 C        -1.3283075336        8.6283827347        1.1912270819
 C        -1.3691900555        9.0657143988        2.7573322922
 C        -1.3829747155        7.7017587297        3.5636803960
 C        -0.5601798750        7.4178027903        4.7501256078
 O        -0.3496941712        8.7836803223        0.4974527549
 O        -2.1620123131        6.7765920463        3.1948155156
 C        -0.0616420019        9.9484508438        2.9600910093
 C        -2.6540787763        9.8503489437        3.0846058200
 H         7.5870562109       -3.3861034528       -6.5970350277
 H         7.1767689747       -1.7665412582       -6.4589474961
 H         8.9178643429       -2.1533069670       -6.1728387852
 H         4.7014200375       -3.3245498069       -3.5784570899
 H         4.0611715885       -1.8249201696       -2.9721898904
 H         7.7053348411       -2.3436851114       -1.5789680428
 H         6.6972323759       -3.6403302345       -2.2501299486
 H         5.8304331992       -2.2949382555       -1.6795459162
 H         7.9537391637       -0.0002272237       -4.2911584084
 H         7.7650515407       -0.0714946988       -2.6309405708
 H         8.9274089451       -1.0077070076       -3.2795539481
 H         3.6588157374       -1.8173144214       -5.7210996335
 H         3.3491951717       -3.4491126887       -5.3911052500
 H        -0.2833031043       -2.2781779912       -1.8455206436
 H        -1.0257666367       -1.7722302627       -3.2148750832
 H        -0.7031971359       -1.3233915319       -5.0679804520
 H        -1.2976381355       -2.8179181217       -5.6575919825
 H        -0.0961970251       -1.8777892744       -6.5811765310
 H         2.0174426623       -4.7633915200       -5.4514134420
 H         0.2931955611       -4.7628436813       -6.0171826834
 H         1.5483460004       -3.7934362596       -6.7881590561
 H        -1.5674178010       -4.4753147435       -1.9068521478
 H        -2.5978002979       -3.8193252181       -3.0465576026
 H        -3.9884408222       -4.9822785666        2.8251319312
 H        -4.1728963736       -5.9152806682        1.3561971046
 H        -5.6532392604       -2.5169339813       -0.7541166196
 H        -4.4931356881       -1.8209148323        0.5121503833
 H        -5.6690334972       -3.0557531090        0.9257704846
 H        -4.8311660177       -4.4610196803       -1.9730671778
 H        -3.6690339533       -5.6745770523       -1.2460283300
 H        -5.2195278398       -5.3623245992       -0.4178019604
 H        -2.0199758884       -6.1229040866        3.2706800722
 H        -2.6460236500       -7.2475531012        2.2070600434
 H         2.6036521883       -5.3025455598        0.9799753211
 H         1.0764411093       -4.5018537740        0.4738707983
 H        -0.3488557680       -7.6832071597        3.5541370044
 H         0.9498953175       -8.5441869249        2.8253746772
 H        -0.6170531253       -8.7733997149        2.2131351066
 H         0.6043779723       -6.7689965459       -0.6034349547
 H         2.0215413634       -7.1818268545        0.2650146328
 H         0.6643163555       -8.3174996761        0.1002511003
 H         3.2221074311       -3.1141053221        1.4340090040
 H         2.7405915163       -3.7378247145        2.9455520328
 H         0.4692220963        0.4900386294        5.1884629030
 H         1.4631647269        1.4545099041        4.2352757996
 H        -0.0825023172       -2.5494709621        4.3056301078
 H         0.8917378801       -1.6891501646        5.4623100383
 H         1.4431187703       -3.2022861207        4.6127179145
 H         3.3124958000       -0.4345125815        2.7368964132
 H         3.0618656120       -0.4267243360        4.5176249457
 H         3.5213983854       -1.9290663006        3.7047588013
 H        -1.0402204192        2.4559055656        4.9033977705
 H        -0.2561101566        2.7487721686        3.4139629480
 H        -3.2473173874        4.3096862234        0.6631034907
 H        -1.7987614453        3.7288517118        0.1666223950
 H        -5.3439654736        2.2970595862        2.5199393477
 H        -4.8020457123        1.0062976065        3.6696519811
 H        -4.9289322340        0.8624905043        1.8652830436
 H        -3.2633794911        3.6556578728        4.0486206153
 H        -2.1229151584        4.0848008495        2.9072894214
 H        -3.9178401508        4.2457543660        2.6499913301
 H        -4.2449865844        2.9095010811       -1.3265778987
 H        -2.5686204858        2.5617531140       -1.8263950130
 H        -1.8578363119        6.5605478394       -0.6494679672
 H        -2.1496054209        7.9714899643       -1.5323074661
 H        -3.3933838464        6.2363989464       -4.6364959011
 H        -2.2970099042        7.0142103091       -3.6486240754
 H        -3.9859217641        7.5639983131       -3.7395279952
 H        -5.7966145867        4.8800098791       -1.8283284161
 H        -5.9018109986        5.8147517702       -3.2472825061
 H        -5.1095528363        4.2720935998       -3.3206392404
 H        -3.4508944141        8.9132020933        0.4215960719
 H        -3.1230595415        7.4209401299        1.2821350438
 H         0.5704536168        7.4819259487        4.6851120524
 H        -1.0379662552        8.0926027780        5.4725275951
 H        -0.8272624970        6.3882361108        5.0378376582
 H        -0.0523176796       10.4185344672        3.9520419017
 H        -0.0051851494       10.8415324060        2.3006145548
 H         0.8370451222        9.3973581843        2.8470084037
 H        -2.6204757435       10.7257167022        2.5675621220
 H        -3.5538257066        9.2843185122        2.7628935638
 H        -2.6329693206        9.9560394091        4.1915051817
 Na       -1.8784577806       -1.0307647344        1.3275340936
