155

 C         7.6040979564       -2.6482209831       -6.6052212613
 C         6.8384127405       -2.9931589718       -5.3512199619
 C         6.7309685108       -1.8440327218       -4.2783337854
 C         5.2143424528       -1.2110057037       -4.7841473504
 C         4.0784566584       -1.7996901524       -4.0577605175
 C         6.7954059527       -2.5066052095       -2.8100426348
 C         7.6705729923       -0.6207309221       -4.5205358401
 O         6.2847269755       -4.0602215625       -5.0694278890
 O         5.1895112188       -0.3394193280       -5.6320594950
 C         2.8493381465       -2.0603105000       -5.0347024893
 C         1.5335816590       -2.0198475060       -4.2960346061
 C         0.4147458226       -3.1334930444       -4.8015523139
 C         0.0680448587       -3.9910319236       -3.5542547348
 C        -0.6676382480       -3.2483406102       -2.3600302649
 O         1.3191620413       -1.0809318312       -3.5813349267
 O         0.4359768849       -5.1541991745       -3.3547529503
 C        -0.6860871474       -2.2561113856       -5.3728944253
 C         0.9792175907       -4.1075213420       -5.8134789656
 C        -2.1821457737       -3.8591477462       -2.0629223339
 C        -2.8291020348       -3.0892666305       -0.8898734251
 C        -3.8686327774       -3.7114688741        0.1457768674
 C        -3.1253054313       -3.7494402935        1.4853540683
 C        -3.2602926088       -4.9981511824        2.4713638797
 C        -5.0663100923       -2.8148344608        0.1460082336
 C        -4.4400115938       -5.0847221642       -0.4070248832
 O        -2.6285242640       -1.9109610579       -0.7802470308
 O        -2.5416004393       -2.7416752167        1.8373101671
 C        -1.9187187024       -5.8088682186        2.6560689175
 C        -1.0259166795       -5.8009293715        1.3817730210
 C         0.3004532577       -6.6316821033        1.3362242566
 C         1.3877116502       -5.6181743977        2.0322119489
 C         1.9547127429       -4.4714547143        1.0511912669
 O        -1.2135467504       -5.0046892950        0.5556839290
 O         1.7239770173       -5.7568809285        3.1701138358
 C         0.1063772651       -7.9224289086        2.2535044140
 C         0.8067243382       -7.1427135715       -0.0553599845
 C         2.4407876204       -3.2607125948        1.8696730317
 C         1.2472782040       -2.2748512077        2.0835923701
 C         1.2664302998       -1.3125403873        3.3359828349
 C         0.7014497343        0.1139484580        2.8798259849
 C         0.3715675369        1.0966811175        4.0414386320
 C         0.3718771404       -1.9497697610        4.3543222777
 C         2.6656537146       -1.0850528309        4.0685664939
 O         0.3138545635       -2.2633018436        1.2987731918
 O         0.6904089226        0.4079658087        1.6917600501
 C        -0.9105241184        1.9309293048        3.5867813439
 C        -2.0928253918        0.9912685700        3.4153117704
 C        -3.3183964531        1.7464663036        2.7719244343
 C        -2.9496479473        2.0051989270        1.2395370519
 C        -3.4079301204        3.2053574057        0.4534217013
 O        -2.1879881785       -0.1411587552        3.9260515764
 O        -2.2073767009        1.2080540188        0.6811871963
 C        -4.4838880670        0.6763407166        2.8131348908
 C        -3.7379887162        3.0350651701        3.4996019841
 C        -3.4017064134        3.1900879899       -1.0457179645
 C        -2.7696464429        4.2933898572       -1.8547387179
 C        -3.5645356421        5.5908118012       -2.0527258036
 C        -3.4595042127        6.4241326912       -0.7045000063
 C        -2.7036886733        7.7469029477       -0.7102676054
 C        -2.9459692174        6.4555845061       -3.2132107570
 C        -5.0659887809        5.4470171804       -2.3497449775
 O        -1.5912135315        4.1815067479       -2.1990401567
 O        -4.1097642723        6.1223668296        0.2416791637
 C        -2.5376314397        8.3286626234        0.7406522420
 C        -1.0467221793        8.6713693251        1.0112859857
 C        -0.7432473093        9.3107781556        2.4635315698
 C        -0.6053105240        8.1358540468        3.4553277403
 C         0.4768036375        8.1958873644        4.5113331856
 O        -0.2166679612        8.3387980829        0.2078432539
 O        -1.2959269461        7.1594170668        3.2617293966
 C         0.5999416217       10.1493415503        2.3085024436
 C        -1.8995500385       10.2332105245        2.8963249420
 H         7.4767665722       -3.4569532984       -7.3251847797
 H         7.2245679158       -1.7510210604       -6.9401850509
 H         8.6910574860       -2.6071282208       -6.4139607882
 H         4.3152020276       -2.6231835025       -3.4195975614
 H         3.7831813426       -1.0868695114       -3.2826475582
 H         7.6075298408       -2.1893201692       -2.1764280678
 H         6.9020819254       -3.5078582129       -3.0922562943
 H         5.9456751717       -2.4081989571       -2.2838316692
 H         7.3804111433        0.0374859820       -5.4187914466
 H         7.5830529905        0.0407847155       -3.6335260777
 H         8.6707725913       -0.9433856053       -4.8110035277
 H         3.0109493673       -1.2980357912       -5.7725592878
 H         3.1672644137       -3.0177562912       -5.5358204133
 H        -0.1043739848       -3.4656831187       -1.4395656949
 H        -0.8204237421       -2.1792880524       -2.5945453840
 H        -1.3410188776       -1.7685651463       -4.6356049070
 H        -1.3021206139       -2.8286306074       -6.0816304666
 H        -0.1464900948       -1.4848278141       -5.9621530335
 H         1.6963247464       -4.7575001715       -5.3852639527
 H         0.1979677318       -4.8483863912       -6.1212424485
 H         1.3601911344       -3.6971947214       -6.7256603118
 H        -2.0548083669       -4.9186641801       -1.8977192729
 H        -2.9293339328       -3.8830904889       -2.8916172012
 H        -3.4769544272       -4.4980571045        3.4319726266
 H        -4.1768775683       -5.5619834950        2.1423859495
 H        -5.5266182010       -3.0081319017       -0.8117186877
 H        -4.8945918838       -1.7125751671        0.1454202858
 H        -5.7401952258       -3.0842456052        0.8992859389
 H        -4.6382623200       -4.9688702667       -1.4256051183
 H        -3.7822652969       -5.9206022095       -0.1285897434
 H        -5.4329156795       -5.1409678681        0.0233517133
 H        -1.3890160218       -5.3124532184        3.5704564156
 H        -2.2574915642       -6.8027743658        3.0541125905
 H         2.7324158782       -4.7726035824        0.2908125784
 H         1.1145385909       -4.1628018472        0.4433859569
 H        -0.1287499481       -7.7405276262        3.2495029598
 H         0.9021317948       -8.6746069809        2.2669533238
 H        -0.8048593529       -8.3935307926        1.9361816063
 H         0.5715139472       -6.5848361044       -0.9292683153
 H         1.9493431739       -7.2305942271        0.1129003601
 H         0.5008188135       -8.2021416761       -0.0857291313
 H         3.1103745277       -2.6802820368        1.2097765588
 H         2.8351102707       -3.5206852852        2.8614764969
 H         0.0767224400        0.4618920853        4.9040206949
 H         1.2284290921        1.7345164280        4.4032103308
 H        -0.6255927505       -2.2383556924        4.0788673738
 H         0.2857744937       -1.3633688499        5.2559435188
 H         0.9802856302       -2.7850861432        4.8296789893
 H         3.5128134531       -0.8702113489        3.4019218217
 H         2.5755075381       -0.2621478971        4.7652309251
 H         2.9362892082       -1.9550626769        4.6673924217
 H        -1.2390693041        2.5927865704        4.4933824573
 H        -0.6488946093        2.5687460534        2.7085346599
 H        -4.3657776201        3.3579152704        0.6508470522
 H        -2.8667594828        4.0580051818        0.9657365551
 H        -5.2879760654        1.1145892716        3.3959169037
 H        -4.1275528329       -0.2810849236        3.2537804545
 H        -4.9170890519        0.4169397041        1.8618216064
 H        -3.9022048303        2.9069807796        4.6202365692
 H        -3.0270854365        3.9247246914        3.3565269350
 H        -4.6272098347        3.5112590873        3.0925697303
 H        -4.5283456706        3.2435362345       -1.3631441060
 H        -3.0336352837        2.2364418097       -1.3940498568
 H        -1.6333907693        7.6129342639       -1.1637621038
 H        -3.3407437508        8.4989032874       -1.2252821662
 H        -3.3953610852        6.2949736099       -4.2450401695
 H        -1.8988746019        6.1990623926       -3.2400122396
 H        -2.9596715210        7.5746976392       -3.1345150608
 H        -5.5866288640        4.8848886665       -1.4873781349
 H        -5.5325192509        6.3172700783       -2.7846935255
 H        -5.1237811137        4.7113312284       -3.1289554995
 H        -3.1426470697        9.1609952628        1.0341380513
 H        -2.7847040447        7.5248932799        1.4464740679
 H         1.4138946079        8.2794158020        4.0057029251
 H         0.3926531149        9.1613533524        5.0240349527
 H         0.4631015946        7.3826797935        5.1771555700
 H         0.8639738806       10.7011825122        3.1767037392
 H         0.3901613216       10.8506090837        1.4849391278
 H         1.5012888670        9.5516417093        2.0528933482
 H        -1.9825243624       10.9957067908        2.1044929954
 H        -2.7855336615        9.5831995134        3.0837007176
 H        -1.5706761396       10.7571576231        3.7433698192
 Na       -1.7809234577       -0.8175288218        1.3088834680
