155

 C         7.2834222244       -3.3938805938       -6.8944215722
 C         6.2814421717       -3.0628247202       -5.7882950756
 C         6.3206574879       -1.6688517469       -4.9765487395
 C         4.9254615283       -0.9742491845       -5.1152047334
 C         3.7721158452       -1.4996269222       -4.2485108183
 C         6.5919066756       -2.1119801356       -3.4941333282
 C         7.4161644447       -0.6087638925       -5.3788714067
 O         5.3482253214       -3.8155034018       -5.5534005619
 O         4.7163514837        0.0194903077       -5.7650472527
 C         2.5182683444       -1.7385530448       -5.1815681074
 C         1.3216605823       -2.1761196329       -4.3180208095
 C         0.1810473671       -3.2420121632       -4.8362241466
 C        -0.2387700850       -4.0332218087       -3.4873304841
 C        -0.7051246064       -3.4120272733       -2.1782451145
 O         1.4038769188       -1.9594914897       -3.1323467159
 O        -0.2047967348       -5.2838163477       -3.5045576315
 C        -0.9621299786       -2.3287206792       -5.2369609699
 C         0.6525165786       -4.2723990405       -5.8681384975
 C        -2.0758695725       -3.9955427705       -1.7890139421
 C        -2.7407151262       -3.1277858953       -0.6938307619
 C        -3.9874255797       -3.7698204913        0.2891729266
 C        -3.1855680440       -3.9970377463        1.6562249360
 C        -3.1919748245       -5.3757261152        2.3714952890
 C        -4.9899274734       -2.5718693557        0.4300796753
 C        -4.5846212057       -5.0481756837       -0.3781556319
 O        -2.5186988871       -1.9408761740       -0.5620726916
 O        -2.6553681537       -3.1376661048        2.3375517962
 C        -1.7687108446       -5.8478315680        2.7750696585
 C        -0.8535982893       -5.7590699479        1.5471420660
 C         0.5895544473       -6.4737370271        1.4006115936
 C         1.6189880549       -5.3626320415        1.9652810763
 C         2.2758142971       -4.4050884789        0.9461226271
 O        -1.2006211791       -5.1053887910        0.5463293833
 O         1.6888086256       -5.2215283745        3.1443576938
 C         0.6730708883       -7.7659638592        2.2415752549
 C         0.7708804385       -6.7831168067       -0.2014010828
 C         2.6675974816       -3.0997095951        1.6815952686
 C         1.3380264294       -2.3363705044        2.1173297620
 C         1.3412362133       -1.4145613734        3.4118504166
 C         0.6924839670        0.0098780527        3.0018164442
 C         0.4926330650        1.1310031778        4.1044185769
 C         0.2757335971       -2.0936729984        4.3528195083
 C         2.7002877171       -1.0437821768        4.0907550768
 O         0.2746332247       -2.6027414791        1.5905941254
 O         0.5030133956        0.2526588992        1.8195351662
 C        -0.7736321132        2.0024203913        3.7475277894
 C        -2.0358658061        1.1424774295        3.3196479483
 C        -3.2767618933        1.7055627467        2.7786427595
 C        -3.1093288823        1.8681248303        1.0821293903
 C        -3.9159129434        3.0770064293        0.4248016734
 O        -1.9881708667       -0.0659600810        3.4038934904
 O        -2.3861132149        1.0865412294        0.5437253089
 C        -4.5552960281        0.6364757850        3.0598667049
 C        -3.7650374148        3.0326428753        3.4039700287
 C        -3.6359979845        3.0660430886       -1.1195516372
 C        -2.8333422556        4.2774799808       -1.5209729040
 C        -3.6313584902        5.5574468259       -1.8830755474
 C        -3.5147905482        6.4729906898       -0.5466885291
 C        -2.3563571732        7.5819086783       -0.5173626648
 C        -2.9835410173        6.2960694876       -3.0892905802
 C        -5.1597105630        5.3790408028       -2.0303882065
 O        -1.6160276463        4.3317802345       -1.4079463824
 O        -3.9975826182        6.0604206076        0.4838083194
 C        -2.2064657981        8.2404211839        0.8853939734
 C        -0.6596121010        8.6547376557        1.0636113638
 C        -0.2549687588        9.5303839040        2.2518699721
 C         0.0619291867        8.4840068936        3.3639266373
 C         1.2930731277        8.6010611244        4.2388233110
 O         0.1110684424        8.5233366452        0.1588838715
 O        -0.6278965099        7.4820694451        3.5466206226
 C         1.0269091275       10.3139180041        1.8404728827
 C        -1.3361739438       10.5008397071        2.7867551297
 H         7.0462177391       -4.4564670959       -6.9369633328
 H         7.1532013423       -2.8162027713       -7.8493121947
 H         8.3018554382       -3.3529872979       -6.6018411785
 H         3.9558924839       -2.4930538805       -3.8866439035
 H         3.3797770017       -0.8935558853       -3.4769891189
 H         6.2132324284       -3.1700559219       -3.3585167587
 H         6.2851783973       -1.3971376075       -2.7673452995
 H         7.6255082090       -2.0321171634       -3.4575741062
 H         7.0232113723       -0.0861779593       -6.1855012105
 H         7.5392610879        0.0933629419       -4.5152695604
 H         8.4113555535       -1.0289239297       -5.5220385662
 H         2.2753369248       -0.8518354806       -5.7282084864
 H         2.8419043833       -2.4306269252       -5.9014313978
 H         0.0235462054       -3.6674727509       -1.3517324768
 H        -0.7609558696       -2.3555579166       -2.2049712319
 H        -1.2606422050       -1.8897838463       -4.2939274172
 H        -1.8412418741       -2.7800848075       -5.7126195326
 H        -0.5127994375       -1.5236429353       -5.9092876998
 H         1.6376055235       -4.6365483414       -5.5956265493
 H        -0.0013331821       -5.1233491673       -5.9610392345
 H         0.7177642230       -3.8056778570       -6.8606301556
 H        -1.8950348198       -5.0454950119       -1.6972554464
 H        -2.7987443097       -3.7474750525       -2.5263716678
 H        -3.9845692501       -5.2224289239        3.1782327738
 H        -3.6515429331       -5.9929765580        1.5833376516
 H        -5.3295678627       -2.3815127299       -0.5940648996
 H        -4.5194824644       -1.6574808393        0.7590016600
 H        -5.8697479370       -2.7320366835        1.0214802554
 H        -5.1071791912       -4.6052708483       -1.2197976408
 H        -3.9247536820       -5.8320171414       -0.6821113265
 H        -5.3706798872       -5.4077789359        0.3069417754
 H        -1.2828355270       -5.3544726792        3.5801229460
 H        -1.9030860934       -6.8571201585        3.1998851384
 H         3.1705536976       -4.9149411670        0.5953341424
 H         1.6267106277       -4.3224659798        0.0407292738
 H         0.6384061129       -7.6255848659        3.3218044796
 H         1.6121693886       -8.2842243305        2.0488623921
 H        -0.0425876056       -8.5159538070        1.9584857207
 H         0.4173382752       -5.9964365002       -0.7609734523
 H         1.7732529581       -7.1745254185       -0.3472246454
 H         0.0435521099       -7.5867699186       -0.3780761566
 H         3.1720342598       -2.3900724961        1.0012640391
 H         3.2324389177       -3.4086627807        2.6016370826
 H         0.3263730000        0.7142790418        5.0970358430
 H         1.2883845691        1.9149198742        4.0411543100
 H        -0.5891316124       -2.4755762292        3.8343138576
 H        -0.0585539554       -1.3112749993        5.0240239113
 H         0.6212600597       -3.0023799484        4.8098929108
 H         3.5220928408       -1.0082543873        3.4348418725
 H         2.5647531681       -0.0693607166        4.6351103579
 H         2.9209434713       -1.7218683423        4.9127117038
 H        -1.1865589768        2.4567883917        4.6623585087
 H        -0.3899946439        2.7445010923        3.0746118493
 H        -5.0663233831        2.9124286517        0.5998941962
 H        -3.5922358003        4.0520418700        0.7609943551
 H        -4.8652875840        0.3600784294        2.0917628657
 H        -5.3131651184        1.1466012555        3.6760883610
 H        -4.1509958195       -0.3195341048        3.4110273708
 H        -3.9261801605        3.0141747862        4.4313141278
 H        -2.9982758166        3.8470946409        3.2870335263
 H        -4.6638464577        3.3517750936        3.0571101577
 H        -4.5334380297        3.1116593457       -1.6874690539
 H        -3.1224577834        2.0892741106       -1.4223397076
 H        -1.4372161055        7.1876694365       -0.8472122798
 H        -2.6362179615        8.3697971828       -1.2258726992
 H        -3.4438242255        6.0732549287       -4.0107830938
 H        -1.9675039726        5.9841284084       -3.2948872772
 H        -2.9709661514        7.3971010248       -2.8897960165
 H        -5.4933963012        4.9633727367       -1.0664106503
 H        -5.6648690117        6.3880551270       -2.0435713781
 H        -5.4564561146        4.7062073329       -2.8865729822
 H        -2.8562273753        9.2267347859        1.0259337968
 H        -2.4863192168        7.5122669872        1.6432857840
 H         2.1715000811        8.1187968687        3.7486028768
 H         1.5024980656        9.6079655925        4.4493892104
 H         1.1125011280        8.0764241018        5.1414149405
 H         1.4224812655       10.9792411637        2.6602455625
 H         0.8580741374       10.9392945969        0.9485047595
 H         1.7920097181        9.6119206491        1.6399267980
 H        -1.4060457861       11.1501837345        2.0080731304
 H        -2.2886777062        9.9916626397        2.9366103083
 H        -0.9771498744       11.0055627475        3.7128126589
 Na       -1.6834670712       -1.0754896371        1.6006729505
