155

 C         7.1029271215       -3.4214753034       -6.8831859182
 C         6.0613185046       -3.0081014319       -5.8245880388
 C         6.1786803230       -1.6396783453       -5.1379121968
 C         4.7475668739       -0.9101555984       -5.3140216191
 C         3.7314526620       -1.6190290543       -4.4908537800
 C         6.5623533068       -1.9651004536       -3.6806747558
 C         7.2344148484       -0.7722334449       -5.9024342494
 O         5.1295073878       -3.7488127067       -5.6474353126
 O         4.6005807026        0.1717569427       -5.8590363841
 C         2.3260656665       -1.8594925125       -5.1259107913
 C         1.3534754264       -2.3655969709       -4.1033966114
 C         0.1897009434       -3.2525623929       -4.6845807269
 C        -0.3850325318       -4.0720209498       -3.5548655112
 C        -0.9411414996       -3.4178209477       -2.3091129728
 O         1.4800365734       -2.0389441028       -2.9439422451
 O        -0.3482021090       -5.2646530731       -3.5335165932
 C        -0.7037855086       -2.1645591319       -5.2303910546
 C         0.5692113008       -4.2161939412       -5.8720256506
 C        -2.3581200958       -4.0255579057       -1.8666502977
 C        -2.7624563157       -3.2232056656       -0.6485048245
 C        -3.9150694677       -3.8227567040        0.3705613921
 C        -3.1374398431       -4.1554240281        1.6603962271
 C        -3.0620428718       -5.5632385985        2.2642460913
 C        -4.8662044928       -2.6266464581        0.6211607558
 C        -4.7219807335       -5.0508232560       -0.1018040918
 O        -2.3682317803       -2.0837360575       -0.5741205432
 O        -2.6930840933       -3.2216253358        2.3028074042
 C        -1.6552257206       -5.8915154919        2.6512099228
 C        -0.8214067899       -5.7509282991        1.3312281347
 C         0.6627592278       -6.4165303538        1.3517506926
 C         1.4430223310       -5.2517167147        2.0283496281
 C         2.2258789973       -4.3069908073        1.1080434819
 O        -1.1305548899       -4.9911178831        0.4198068693
 O         1.5562093120       -5.1897092770        3.2731544342
 C         0.7050278954       -7.6207830189        2.3311811655
 C         1.1596596545       -6.7812932321       -0.0651291308
 C         2.5718936395       -3.0271869496        1.8184491570
 C         1.3102591935       -2.2961113152        2.1823813107
 C         1.3239089426       -1.3213429947        3.4309816447
 C         0.7011133754        0.1067738494        2.8732791956
 C         0.3622999716        1.1358951293        3.9824559622
 C         0.3892435857       -2.0375578050        4.5236850106
 C         2.7316335873       -1.1648187226        3.9464894157
 O         0.2874762700       -2.3965465701        1.5273210860
 O         0.5881896952        0.3846320972        1.7122434007
 C        -0.8487723630        1.9958732289        3.6343177294
 C        -1.9978387317        1.0148229612        3.3442769699
 C        -3.2668165875        1.7011561474        2.8460712832
 C        -3.1625686245        1.7427330604        1.2723141484
 C        -3.9655771977        2.9359319383        0.4841241963
 O        -2.0379533571       -0.1602292101        3.6688936263
 O        -2.6287599347        0.8064770505        0.7367146545
 C        -4.5923181614        0.9393973877        3.0447557558
 C        -3.4489888352        3.0853564900        3.4026649589
 C        -3.5473513554        2.9856111520       -0.9986250070
 C        -2.8662551995        4.3380064242       -1.4188661111
 C        -3.6611417619        5.5656250328       -1.7295421913
 C        -3.3005969960        6.3898263772       -0.3888208211
 C        -2.2094643390        7.4652179816       -0.3821540357
 C        -3.0766723393        6.2648413131       -3.0368931532
 C        -5.1652632136        5.5251362503       -1.9284092807
 O        -1.6869014311        4.5423287992       -1.2759258757
 O        -3.9372712654        6.1971100151        0.6379206340
 C        -1.8061991950        7.9846885338        0.9975495079
 C        -0.4818214844        8.6405121503        0.9891289410
 C        -0.1397979958        9.5892557131        2.1686683271
 C         0.1964069924        8.5464379533        3.3202892882
 C         1.4753612030        8.6646841181        4.1128904669
 O         0.2406067685        8.4840350623        0.0116895855
 O        -0.5314876346        7.6092962005        3.5481061090
 C         1.1080645601       10.4580696295        1.8262026154
 C        -1.3209268034       10.5089432221        2.6433252289
 H         7.0237708151       -4.4503410677       -7.2451332343
 H         6.8588664704       -2.6324609402       -7.5972629078
 H         8.1711061649       -3.2321947761       -6.5721476215
 H         3.9991374147       -2.6471079084       -4.2157250445
 H         3.4717070726       -0.9450257958       -3.6317714750
 H         5.6112059924       -2.1014844027       -3.2198851043
 H         7.1663969487       -1.0978956432       -3.2730651127
 H         7.2202352323       -2.9274080355       -3.5371251261
 H         6.9131905186       -0.6894433860       -6.9405057107
 H         7.3553710812        0.1628761268       -5.4438098578
 H         8.1980328808       -1.2676332271       -5.7457676265
 H         2.1027421974       -1.0072494858       -5.8069102013
 H         2.5260776712       -2.7539187293       -5.7774084481
 H        -0.2712759231       -3.4251877599       -1.4914709073
 H        -1.1045379783       -2.3163704121       -2.4094548456
 H        -1.1248326417       -1.4896940644       -4.4356942294
 H        -1.4736493760       -2.6797137588       -5.8448410788
 H        -0.1036026242       -1.5913801205       -5.8974583450
 H         1.5508463070       -4.7296568406       -5.7515643985
 H        -0.2850018773       -4.8877645222       -6.0147062839
 H         0.6545788966       -3.6650820970       -6.8041958014
 H        -2.2278473333       -5.0968213958       -1.5996155768
 H        -3.0759206618       -3.8199251369       -2.6929679925
 H        -3.7098288784       -5.5018790412        3.0694348624
 H        -3.5183228745       -6.2477341552        1.5998468674
 H        -5.4244101206       -2.3096714710       -0.2490148024
 H        -4.4224520288       -1.7867926573        1.1385463323
 H        -5.7116828375       -3.0251156073        1.2722819871
 H        -5.3419931967       -4.7904189397       -1.0009502721
 H        -4.0596815103       -5.9001283741       -0.4174885402
 H        -5.4286690656       -5.2886119111        0.6905578485
 H        -1.2480345245       -5.3589182191        3.5139732871
 H        -1.7297241256       -6.8839472092        3.0242936485
 H         3.1511252358       -4.7638644496        0.7218479466
 H         1.6068655246       -4.1267775533        0.2481553613
 H         0.7435062096       -7.2860344300        3.3850361425
 H         1.5963556976       -8.2397681871        2.1702875453
 H        -0.0570179661       -8.4115829806        2.1428729210
 H         0.5680688062       -6.0748227309       -0.7608315919
 H         2.2045799272       -6.6099973063       -0.0272094948
 H         0.9277806813       -7.8146448451       -0.2405724454
 H         3.1535212065       -2.4010503123        1.1434426251
 H         3.0434964171       -3.2151325483        2.7474316368
 H         0.0066254899        0.6838080981        4.8982307721
 H         1.1683129235        1.7906257304        4.1520931666
 H        -0.6732036759       -2.1564953872        4.3039222922
 H         0.5277420160       -1.4984380423        5.4553999161
 H         0.7091897911       -3.0617388836        4.6181253265
 H         3.4080547968       -0.4692264896        3.3662546274
 H         2.6542593707       -0.7701707046        4.9283751838
 H         3.1877054519       -2.1512953469        4.0932436751
 H        -1.1020666907        2.6655125869        4.4238648337
 H        -0.6450490063        2.6286873295        2.7260368503
 H        -4.9437049501        2.5533736292        0.4967035567
 H        -3.9200347417        3.9113964984        0.9812307860
 H        -5.4522112512        1.6471375690        2.7435842296
 H        -4.5566943912        0.5822519623        4.0759650801
 H        -4.5808124042        0.1214992518        2.3156762522
 H        -3.2645294229        3.2093750006        4.5012511773
 H        -2.6847504234        3.7145034940        3.0428405527
 H        -4.4664864552        3.5849429727        3.1305869711
 H        -4.3642193912        2.7769971823       -1.7269173872
 H        -2.9596294652        2.1151814125       -1.0426042543
 H        -1.3842451460        6.8321799029       -0.7661248967
 H        -2.3696193157        8.2566582177       -1.1371811060
 H        -3.7011343943        6.0324899269       -3.9069668911
 H        -2.0831776311        5.8874211569       -3.3117306070
 H        -2.9961680164        7.2855029213       -2.9380049253
 H        -5.6203862959        5.2399404141       -1.0156117043
 H        -5.4934389358        6.5265264151       -2.0083173462
 H        -5.4220900689        4.9113647250       -2.7675953319
 H        -2.4234506955        8.7359397489        1.2799530965
 H        -1.8718425576        7.1451701761        1.7229666501
 H         2.1696252114        8.0522051599        3.5675750182
 H         1.8653700819        9.7088040236        4.1747237767
 H         1.4021699704        8.2030396997        5.1337520480
 H         1.3003072860       11.1507261425        2.6288084081
 H         0.7742097357       11.1214913793        1.0251273606
 H         2.0563059375        9.9603076526        1.4504130141
 H        -1.8657310869       11.0167670580        1.7646203160
 H        -2.0461243869        9.8749116747        3.1250296717
 H        -0.8687647625       11.1707801009        3.3493006983
 Na       -1.7866910417       -1.3166755668        1.3941924467
