155

 C         6.7951546273       -3.7550190459       -7.2227710478
 C         5.5504051994       -3.1629748484       -6.4800536938
 C         5.6022737150       -1.5696819000       -6.2887520626
 C         4.2268399963       -0.9206728280       -5.6715228717
 C         3.5432835347       -1.6246058861       -4.5086706045
 C         6.8724842391       -1.2400290037       -5.3389910500
 C         5.8093638944       -0.9124187527       -7.6499584105
 O         4.6423518850       -3.8618244360       -6.1662027025
 O         3.8674088241        0.1950672548       -5.9807939034
 C         2.1400864553       -2.3770011329       -5.0662211530
 C         1.0837316125       -2.9665273110       -4.2372804773
 C        -0.2278980735       -3.4401265542       -5.0795814801
 C        -1.3418638816       -3.9272674188       -4.0463635941
 C        -1.5733188946       -3.0421597352       -2.7558463370
 O         1.1496492748       -3.2697146375       -3.0439988129
 O        -2.0644221201       -4.8707698377       -4.2527193793
 C        -0.6933300062       -2.1327605705       -5.7680489385
 C         0.2143893440       -4.6529225573       -6.0423449891
 C        -2.4173987544       -3.7230865638       -1.7386082965
 C        -2.8631425425       -3.0031307422       -0.4804156991
 C        -3.7992857007       -3.8075084684        0.4533587664
 C        -2.8580144200       -4.3182972872        1.7470961045
 C        -2.7536350348       -5.9424040685        1.8733353948
 C        -4.8536849680       -2.8062479223        1.0160336484
 C        -4.5342650296       -5.0555422774       -0.1850417744
 O        -2.3467560271       -1.9486791709       -0.1478085556
 O        -2.1497705978       -3.6147810815        2.4289907507
 C        -1.3743228243       -6.4764804249        2.3676770592
 C        -0.3949525653       -6.4744574647        1.2426250340
 C         1.1544683498       -6.5227085140        1.5274269934
 C         1.4943268002       -5.1131572042        2.1208113800
 C         2.1103902398       -4.1124874421        1.1947461009
 O        -0.7341629421       -6.4698300207        0.0778787012
 O         1.0089015774       -4.7163667520        3.2289731374
 C         1.6276614631       -7.5098015437        2.6765439173
 C         1.9314306101       -6.8588691659        0.2179355412
 C         2.4974068312       -2.8392380800        1.8845750521
 C         1.2481733947       -1.9393161288        2.1938645133
 C         1.4246081004       -0.8382243431        3.2672652731
 C         0.5083061520        0.3995984265        3.1231336238
 C         0.4541363292        1.3632060416        4.3307914384
 C         1.0291747509       -1.6368518031        4.5460028539
 C         2.8505569831       -0.3562733121        3.2960392045
 O         0.1652302900       -2.1940425090        1.7207776159
 O        -0.3566135846        0.5330934044        2.2785937209
 C        -0.8900352814        2.1317197199        4.1726207236
 C        -2.1297698799        1.2767086578        3.9121081336
 C        -3.3884815737        2.0507825987        3.3658701644
 C        -3.4691879267        1.8492593759        1.7733549560
 C        -3.9671055887        2.9783884929        0.7902165645
 O        -2.2358184263        0.0657049808        4.1246599398
 O        -3.4697503296        0.7696484490        1.2497909477
 C        -4.6745701621        1.4498426823        4.0510124104
 C        -3.4706037912        3.6292945131        3.7169755979
 C        -3.5703313226        2.7697560569       -0.6506840811
 C        -2.7787123074        3.9922092886       -1.2645973694
 C        -3.4071008096        5.4986442493       -1.1885528505
 C        -2.8126886783        6.2382161571        0.0923472104
 C        -1.3043406526        6.5045363123        0.2563512843
 C        -2.9245948521        6.1879963374       -2.4733889600
 C        -4.9084721745        5.4363204883       -1.0937144007
 O        -1.6676359256        3.8613061271       -1.6958781985
 O        -3.5935927755        6.5725564167        0.9917937413
 C        -1.0123093691        7.5835302623        1.2964452031
 C         0.0695552756        8.6447624531        0.9330070878
 C         0.4241262266        9.7183218731        1.9720221875
 C         1.0244090991        8.8812050632        3.1473263817
 C         2.5414166165        8.8759690598        3.3404342200
 O         0.4582304740        8.7385870247       -0.2110157105
 O         0.3772965974        8.0876822381        3.7761347094
 C         1.3185314933       10.8343981082        1.3973422139
 C        -0.9013717292       10.3272090129        2.4337546863
 H         7.1622912348       -4.7128970268       -6.7541424547
 H         6.4926566448       -4.0541132957       -8.2082183565
 H         7.6401378708       -2.9815143132       -7.2683715339
 H         4.1400453061       -2.4332025521       -3.9706644807
 H         3.3799347118       -0.8489992653       -3.7176562146
 H         6.6253114540       -1.2468359050       -4.2974684466
 H         7.3666909658       -0.2456090937       -5.6214106548
 H         7.6693419033       -2.0688497443       -5.5459125146
 H         5.2916502982       -1.5573716999       -8.3846494451
 H         5.3054638187        0.0206400332       -7.6547945597
 H         6.8722687720       -0.8373867961       -7.9545713308
 H         1.7913599343       -1.7277734126       -5.8878877686
 H         2.5916908670       -3.2364958196       -5.6692066821
 H        -0.5986458154       -2.8019453099       -2.2933456999
 H        -2.0976240570       -2.1958716017       -3.1381691159
 H        -0.3646423832       -1.2656031266       -5.1665132119
 H        -1.7575592278       -1.9166257935       -5.8005209949
 H        -0.2179653762       -2.1809332331       -6.7604313901
 H         0.7784973554       -5.2982799372       -5.4361260511
 H        -0.6492871701       -5.3206035809       -6.2254389150
 H         0.6408427695       -4.3474877736       -6.9643450987
 H        -2.0150684490       -4.7368349256       -1.5411636868
 H        -3.3683325743       -3.9918041894       -2.3523378662
 H        -3.3811838376       -6.1229708970        2.7190787113
 H        -3.1718205412       -6.4530302026        1.0346303203
 H        -5.5080767663       -2.5117465313        0.2090832812
 H        -4.5418504951       -1.8210479401        1.3781683298
 H        -5.3692231712       -3.2867672015        1.8216737211
 H        -5.4066027992       -4.8562634588       -0.7449795682
 H        -3.8827042593       -5.6884836755       -0.8443794142
 H        -4.8804864060       -5.8045465755        0.5765088111
 H        -1.0408319025       -5.9972583541        3.2958959977
 H        -1.6123741838       -7.5234253542        2.6178830973
 H         3.0125279225       -4.5149052691        0.7254908049
 H         1.3261430715       -3.9974634059        0.4492522789
 H         1.1001653767       -7.3181841437        3.5955308590
 H         2.7212038889       -7.3745298836        2.8639274750
 H         1.2382180595       -8.4777326585        2.3768765188
 H         1.7198965029       -6.0157790677       -0.5533138338
 H         2.9608477335       -7.0131014241        0.5107157421
 H         1.5215574686       -7.7530812836       -0.2000259012
 H         3.1467249403       -2.3572132039        1.1859279224
 H         3.1514413490       -2.9232863990        2.7521229818
 H         0.5181878288        1.0141594361        5.3215495673
 H         1.3266983736        2.0218502969        4.3533771534
 H        -0.0213537513       -1.7759491038        4.6303514155
 H         1.2179756417       -1.1256979907        5.4690011397
 H         1.6137525451       -2.5942792917        4.5991260482
 H         3.1834748680       -0.1831368695        2.2779875175
 H         2.9111437854        0.5546006419        3.8927920177
 H         3.5313502789       -1.0274293986        3.7856791015
 H        -1.1432362844        2.7576529391        5.1175015234
 H        -0.8326875436        2.8759288204        3.3914124942
 H        -5.0348677689        3.1111192990        0.9929184648
 H        -3.5754223296        3.9968665933        1.1416091409
 H        -5.5525196954        2.1130851716        3.8471123456
 H        -4.3587462624        1.1536177599        5.0417961577
 H        -4.7501887302        0.4894523608        3.5393957889
 H        -3.5342991241        3.7409271273        4.8317816835
 H        -2.6876494211        4.1241346171        3.2045113303
 H        -4.4943019661        4.1006181167        3.4441483074
 H        -4.4591233836        2.5387151269       -1.2401175778
 H        -2.8618539423        1.9696520362       -0.6757029152
 H        -0.5846468952        5.6075953491        0.5306776623
 H        -0.8788965618        6.8673374716       -0.7010389258
 H        -3.3656854698        5.8904030250       -3.4212665218
 H        -1.8738443488        6.1609643843       -2.5171523341
 H        -3.1757207293        7.2036000117       -2.3069014418
 H        -5.3157446578        5.8375188208       -0.1243249851
 H        -5.3025478105        5.9033808060       -1.9853085484
 H        -5.1887854573        4.4020526316       -1.0938594316
 H        -1.8738249510        8.1159464970        1.6653616197
 H        -0.5924075966        7.0541606282        2.1665402396
 H         3.0572140130        8.6721119882        2.4192452045
 H         2.7599265236        9.9594809361        3.4286294263
 H         2.9313052970        8.2662562696        4.1711053716
 H         1.7121772817       11.4573010556        2.1830917649
 H         0.7085083474       11.4717229432        0.7028050498
 H         2.2518693592       10.4429434609        0.9205933586
 H        -1.4984360708       10.7380084623        1.5314461209
 H        -1.4420746616        9.5967401680        3.0665164878
 H        -0.8097581207       11.1503967580        3.0842554225
 Na       -2.0530335616       -1.1262821996        2.0859348726
