155

 C         6.0355637244        1.4449843266        7.7950214636
 C         6.4789553452        0.4028408291        6.7812018488
 C         6.2824387288       -1.0697804443        7.3481568480
 C         4.7986879152       -1.5434459162        7.0007401283
 C         4.0389323107       -0.8967310925        5.7858114200
 C         7.2234674419       -2.0209348859        6.5197547711
 C         6.5620729116       -1.0841606410        8.8659469411
 O         6.9504747831        0.8556856453        5.7541559208
 O         4.2577227365       -2.4704787026        7.6221605697
 C         2.8317329213       -1.6749372487        5.3241708705
 C         3.2891760410       -2.4923086423        4.0568226960
 C         2.8968899814       -4.0679592891        3.9439483952
 C         1.3130156864       -3.9152166926        3.9733424241
 C         0.4817722174       -3.9299329304        2.6310026651
 O         4.0737899001       -2.0034084972        3.2272982001
 O         0.6983935371       -3.8767757896        5.0475610536
 C         3.5396995004       -4.6628694171        2.6727132183
 C         3.3179458559       -4.8930277415        5.1741038002
 C        -0.8711421238       -3.2248721973        2.9077918042
 C        -1.2256826734       -1.9177748397        2.4055987651
 C        -2.0656291602       -0.8687380228        3.2935562990
 C        -1.3340334622        0.6698527629        3.2484364456
 C        -1.1078019609        1.4574634471        4.5276938423
 C        -3.5929841527       -0.8948724739        2.7821719793
 C        -2.0886401739       -1.3294599644        4.7405251413
 O        -0.7259075790       -1.5792606916        1.3112989998
 O        -1.2382855620        1.2051480677        2.1497321054
 C        -0.2361468879        2.7437913135        4.1582242132
 C         1.1832390920        2.4141748663        3.5899693063
 C         2.0989935267        3.6272830466        3.1139199123
 C         2.4481294790        3.1814556762        1.6693028686
 C         3.3412407702        1.9918072124        1.5157266307
 O         1.6364225456        1.2943267530        3.5998980717
 O         2.0499758377        3.8245173029        0.6860719055
 C         1.2268694714        5.0156080897        3.0268707878
 C         3.3393563193        3.7082430011        4.0671513354
 C         3.4667973476        1.6359290833       -0.0001078450
 C         2.2153978249        0.9887453368       -0.6729786070
 C         2.0686402190        0.8494887304       -2.3489941108
 C         0.4583357834        0.9171578325       -2.5067189292
 C        -0.2171003511        2.3000717810       -2.7945083352
 C         3.0225157985        1.7715889421       -2.9692762872
 C         2.6565298833       -0.5359639728       -2.5714577804
 O         1.3939110357        0.3863892762       -0.0131102197
 O        -0.0887381574       -0.1436877356       -2.3072523783
 C        -1.7623583048        2.4270087948       -3.1375591278
 C        -2.7226571359        2.1529102983       -1.9490491742
 C        -4.2524815430        2.2445738836       -2.1360335979
 C        -4.6923419841        0.7496189182       -2.2049733286
 C        -4.6771924822        0.0683642973       -3.5579169432
 O        -2.2592809759        1.7746671159       -0.8915768204
 O        -4.7247634801        0.1095364559       -1.1812677354
 C        -4.8643619107        3.0837450348       -0.8779603944
 C        -4.7259197846        2.9475317957       -3.4277261399
 C        -5.2334007852       -1.3850154908       -3.3175787819
 C        -5.2966632995       -2.2004341936       -4.6881171045
 C        -6.5752848312       -1.9924966586       -5.5249598396
 C        -6.3454842388       -0.7119681889       -6.2656918930
 C        -5.5194374229       -0.6472359954       -7.5765864414
 C        -6.7804828061       -3.1004366721       -6.5531518191
 C        -7.8085400224       -1.9090621754       -4.6134296388
 O        -4.4373014517       -2.9712884172       -5.0761592986
 O        -6.8030005213        0.3827419783       -5.7777004821
 C        -3.9800784019       -0.5731208616       -7.2638931733
 C        -3.2214696748       -0.1808793476       -8.6170083140
 C        -1.8051288165        0.6171864404       -8.5658524176
 C        -2.3295521236        1.9960252770       -8.0411111593
 C        -2.9937508037        2.9102950995       -8.9940171333
 O        -3.6678959091       -0.5581050771       -9.6602165564
 O        -2.1395745251        2.3482971831       -6.8678264188
 C        -0.9056925610       -0.0484164463       -7.4730775928
 C        -1.1698462932        0.6830926883       -9.9599745574
 H         4.9913018318        1.3210782679        8.0155883564
 H         6.6503327680        1.6625288952        8.7182419494
 H         6.1671511123        2.4060493517        7.3346305676
 H         3.7244467772        0.0070208449        6.1306390713
 H         4.6611886546       -0.6013052084        4.9103288209
 H         8.2225371475       -1.9440590912        6.9511068000
 H         7.2231160135       -1.7256187759        5.4776638264
 H         6.8308501062       -3.0055219371        6.5809688946
 H         5.6539779070       -0.5859788597        9.2727038731
 H         6.7371295074       -2.0485052930        9.2579491911
 H         7.5236617204       -0.5822342458        9.0055596767
 H         2.3432947475       -2.2090331712        6.1612070742
 H         1.8448246980       -1.0314960816        5.0382141950
 H         0.9209451843       -3.5632922223        1.6903149992
 H         0.2896440717       -5.0246824784        2.3692365875
 H         4.4394694178       -4.1446353382        2.4814464408
 H         2.8152955150       -4.6679624607        1.8200882059
 H         3.8471665561       -5.6843478182        2.8069096769
 H         3.7011677470       -5.9454628349        4.9281663122
 H         4.2858248712       -4.5506901949        5.5998132609
 H         2.4850064676       -4.9351840496        5.9413966377
 H        -1.2166796399       -3.4381101936        3.8915662032
 H        -1.6335367470       -3.8728717361        2.3400512761
 H        -2.1535892686        1.7807003605        4.8655755258
 H        -0.6520512288        0.8384880011        5.3804290907
 H        -4.3347868874       -0.4592341934        3.5853323109
 H        -3.9309630446       -1.9200715595        2.5989074882
 H        -3.6930846177       -0.1956487818        1.9677679056
 H        -2.4251894260       -2.3882928128        4.8856531422
 H        -1.0344869209       -1.2958006677        5.1212658027
 H        -2.6868179780       -0.5864276718        5.2836601041
 H        -0.7159774793        3.2355122999        3.3253492096
 H        -0.0219014430        3.4066468364        5.0108066733
 H         4.3375062052        2.2831752413        1.8561038385
 H         2.8800896146        1.2252435776        2.1441485060
 H         0.7706165742        5.2564689243        3.9738321257
 H         0.4159833057        4.8400549349        2.3047458216
 H         1.9703768016        5.7751272122        2.8052822184
 H         4.1544540746        4.1147519859        3.5334756995
 H         3.0707328775        4.4143668315        4.8722235502
 H         3.6413533195        2.7987983617        4.5792934487
 H         4.1933027430        0.8551930678       -0.1737902103
 H         3.7185470110        2.4670942275       -0.6193318885
 H        -0.0617631418        2.9387049716       -1.9382324231
 H         0.3465272413        2.7037689808       -3.7073626613
 H         4.0207309697        1.6968854808       -2.4962625307
 H         2.7998804462        2.7876774978       -2.9042114620
 H         3.0643762542        1.4457072832       -4.0338861560
 H         3.6240851618       -0.6110341437       -2.1608560783
 H         2.2244061736       -1.3590394235       -1.9619685450
 H         2.8027500812       -0.7646765745       -3.6358176216
 H        -1.8578076494        3.4555210497       -3.3512717565
 H        -2.0451738702        1.8490059853       -3.9731654316
 H        -5.1785876920        0.6287949701       -4.3405909339
 H        -3.6148407779       -0.1281309141       -3.7237233737
 H        -5.7847810144        2.6406474225       -0.5424214985
 H        -5.0214766811        4.1801785466       -0.9401571347
 H        -4.3398876737        2.9481798703        0.0609987886
 H        -4.6978763240        3.9473506011       -3.4198941203
 H        -4.1937959370        2.5326916570       -4.3170204216
 H        -5.7692419400        2.7757526335       -3.6956181311
 H        -6.1697495418       -1.4667091967       -2.7458954744
 H        -4.4729813205       -1.8124533947       -2.7588531186
 H        -5.6511729034       -1.3667196811       -8.3573775675
 H        -5.7394396657        0.3725741163       -7.9218361206
 H        -6.7468434671       -4.0628892120       -6.0423870788
 H        -6.0510036403       -3.2513460048       -7.3176766039
 H        -7.7389667657       -3.0000472651       -7.0140998601
 H        -7.9345297856       -2.9041839964       -4.0696553611
 H        -7.7820889190       -1.1923772265       -3.7965687575
 H        -8.7125391303       -1.8173947454       -5.2617627584
 H        -3.6977184897        0.1448026069       -6.4687856239
 H        -3.6652341297       -1.5791297428       -6.9194537700
 H        -2.3065896943        3.7580573104       -9.1796072944
 H        -3.2699243380        2.3492454635       -9.8960303450
 H        -3.8575436865        3.4152377939       -8.5079661529
 H        -1.1229011747       -1.1216276241       -7.5258245596
 H        -1.2268439146        0.3412687001       -6.4804875600
 H         0.1585242870        0.1691797705       -7.4939368775
 H        -1.1768727168        1.6418349491      -10.4466226832
 H        -0.1674528497        0.4510202871       -9.8708026112
 H        -1.6268128155        0.0650902138      -10.6974606720
 Na       -0.8059599221        0.1217063214       -0.0065020342
