155

 C         6.7121835425       -3.8821706917       -7.2463154632
 C         5.5446246401       -3.0868324269       -6.6356847496
 C         5.5455728306       -1.5838541146       -6.3933854662
 C         4.2089760918       -1.1258273915       -5.7013937015
 C         3.4164881070       -1.9472275118       -4.6986240373
 C         6.7620029312       -1.0390850534       -5.6547650196
 C         5.5025976326       -0.8395944783       -7.8090696575
 O         4.5762824548       -3.7332402014       -6.2377162922
 O         3.8259799538        0.0166106089       -5.9068255707
 C         2.2327251197       -2.5327342385       -5.3900557188
 C         1.1028879985       -3.0813665313       -4.4626814454
 C        -0.3046732359       -3.4426758519       -5.0817926028
 C        -1.3926558575       -3.7665604362       -4.0078169838
 C        -1.6157054163       -2.9742068395       -2.6339243414
 O         1.4509154120       -3.2756701698       -3.3221618963
 O        -2.1442605059       -4.6593870433       -4.2699890715
 C        -0.8932772490       -2.2617739902       -6.0217352685
 C        -0.2184773943       -4.6192696610       -6.0056721115
 C        -2.5645427439       -3.8616549010       -1.7724020497
 C        -2.8061718940       -3.1843507496       -0.4501701067
 C        -3.8030140762       -3.8282033354        0.5243414535
 C        -2.7940172302       -4.3420824277        1.6204194779
 C        -2.6212760955       -5.8515965941        1.9614073095
 C        -4.7639195829       -2.7929222896        1.1956977177
 C        -4.7226289391       -4.8972502760       -0.1007844279
 O        -2.3293383775       -2.1130216194       -0.1359766078
 O        -2.2128903098       -3.5728448877        2.3662192122
 C        -1.2104434983       -6.2358855403        2.3781028210
 C        -0.2714757365       -6.5593534292        1.2698442233
 C         1.2873305881       -6.6220837259        1.5712636129
 C         1.4685232614       -5.0887079992        1.9621115845
 C         2.0718370444       -4.0816254388        0.9653437086
 O        -0.7147984041       -6.6014018163        0.1620759463
 O         1.1103198988       -4.6877674586        2.9939955316
 C         1.5938486681       -7.5406422963        2.7545909453
 C         2.1253094661       -6.9466201561        0.3008698111
 C         2.3719191127       -2.7478072367        1.7517213682
 C         1.1732397763       -1.9113634542        2.1961005119
 C         1.4237671015       -0.8298788576        3.3154561216
 C         0.4752262404        0.4289719546        3.1793150818
 C         0.2994984942        1.4204074165        4.3624442502
 C         1.2911738777       -1.5697834969        4.6987673755
 C         2.9307967611       -0.3187489076        3.2790374954
 O         0.0740068754       -2.0761919636        1.7524507499
 O        -0.0755673933        0.5777417351        2.1109877678
 C        -0.9909078821        2.2955219190        4.4609390379
 C        -2.2581170929        1.5046225293        4.0087514634
 C        -3.5131908090        2.2004428642        3.5215665786
 C        -3.4500506014        2.0035087588        1.9304190001
 C        -3.8717206642        3.1552866655        1.0758741972
 O        -2.1702997291        0.3164794456        4.2060208530
 O        -3.3230926886        0.8398903950        1.5392666408
 C        -4.8963847692        1.3765670743        3.8823490427
 C        -3.6634295854        3.6600417528        4.0252791205
 C        -3.5711598470        2.7581952496       -0.4580598389
 C        -2.7149833113        3.9448076285       -1.0607946477
 C        -3.2667504199        5.4221419359       -1.1286556912
 C        -2.7278610318        6.0818232031        0.1754693603
 C        -1.2929627154        6.4522973231        0.1650913128
 C        -2.7571161083        6.1419847015       -2.3579990419
 C        -4.8641814950        5.5555209747       -1.1327844771
 O        -1.6645816936        3.7940981190       -1.6677018399
 O        -3.4826483225        6.2391627894        1.0871230743
 C        -1.0236229671        7.4790224586        1.3156495981
 C        -0.1506228139        8.6156987533        0.8491993828
 C         0.3755230641        9.6230769836        1.8771838617
 C         1.1968732822        8.8502335442        2.9583283766
 C         2.7289975101        9.0411101822        3.1302205406
 O         0.5152461119        8.5169542089       -0.1545277436
 O         0.6955621520        8.1587749712        3.8508432384
 C         1.3233734223       10.7365123094        1.1603739942
 C        -0.7642607684       10.4104418486        2.6846960685
 H         7.0362618288       -4.6560078216       -6.5967725498
 H         6.4787838575       -4.3791449432       -8.2170722388
 H         7.4858125891       -3.2107703101       -7.3822574425
 H         3.9238586013       -2.7230306243       -4.1985156624
 H         3.1572443754       -1.3257858126       -3.8550242326
 H         6.8756672238       -1.5480046868       -4.7012154393
 H         6.7335895877        0.0179384894       -5.5821681257
 H         7.6088812627       -1.1463291463       -6.1822333780
 H         4.5669993090       -1.0549620721       -8.3943579961
 H         5.6280230040        0.2758656450       -7.6168169661
 H         6.3710496439       -1.1807552225       -8.3313150177
 H         1.9360221291       -1.6953593941       -6.0419862503
 H         2.6225176711       -3.2259039745       -6.0927459264
 H        -0.7558188218       -2.6829875746       -2.0271807337
 H        -2.2300021438       -2.1263542842       -3.0755674572
 H        -1.4493883901       -1.5304136968       -5.4856784879
 H        -1.6995433268       -2.7637367123       -6.5653943696
 H        -0.1923012252       -1.9076244060       -6.7724427026
 H         0.1707518391       -5.4986541885       -5.4693621913
 H        -1.1772569575       -4.9249154472       -6.3713154960
 H         0.3562978546       -4.2626200883       -6.8890072614
 H        -2.2256062330       -4.9202404059       -1.6955907102
 H        -3.5035130688       -4.0322529440       -2.2664422195
 H        -3.4319337090       -6.1576264894        2.7213174464
 H        -2.8942990123       -6.3266102393        0.9579260198
 H        -5.5644082586       -2.3448832427        0.5804556768
 H        -4.1608724250       -1.9007053824        1.4639041723
 H        -5.0906101979       -3.1454815186        2.1693363194
 H        -5.2236105356       -4.6587828846       -1.0767286483
 H        -4.2927375266       -5.8506092980       -0.2759131599
 H        -5.5810085840       -5.0849264435        0.5180964488
 H        -0.7789892209       -5.3393370373        2.8949634284
 H        -1.2206822328       -7.0606440418        3.1385232760
 H         3.0077974697       -4.3843695687        0.5115782573
 H         1.2696485181       -3.9945806705        0.1939831060
 H         0.9070671293       -7.4114911016        3.6288574954
 H         2.5887211087       -7.2479219325        3.0578967825
 H         1.4941925404       -8.5746017221        2.4009347065
 H         1.6103510536       -6.6574195914       -0.5330142589
 H         3.1824333156       -6.6240096999        0.4786430727
 H         2.1604119417       -8.0901932737        0.2432742072
 H         2.9726315509       -2.1403648488        1.0150715135
 H         3.0931522830       -2.8091295534        2.5633227519
 H         0.4508769672        0.7882627508        5.3338431783
 H         1.1721889617        2.0936416453        4.5167104484
 H         0.2764709103       -1.9615824276        4.9060353898
 H         1.3590683679       -0.8803005719        5.5772939595
 H         1.9488198066       -2.4150231453        4.7188390230
 H         3.1530684347        0.1101648914        2.3070442189
 H         3.1693162196        0.3528447260        4.1181966312
 H         3.6213522046       -1.1786878084        3.3671963779
 H        -1.1549334427        2.6008377291        5.4608202397
 H        -0.7986283283        3.2677296419        3.9078045188
 H        -4.9111704469        3.4167446479        1.2659255134
 H        -3.3549869275        4.0159542736        1.4919395768
 H        -5.0853818933        1.8125333111        4.8436678110
 H        -4.5991704060        0.3060209445        3.9048272012
 H        -5.6575793797        1.5144336224        3.0988200783
 H        -3.9622002646        3.6486385959        5.0781751165
 H        -2.7242343650        4.1507148464        3.8449843087
 H        -4.4471298304        4.1602916116        3.5185980543
 H        -4.5139177642        2.6260057627       -0.9865811564
 H        -2.9104336347        1.8329252292       -0.4008499280
 H        -0.7814365566        5.6137297212        0.4644057240
 H        -0.8018176330        6.7114212979       -0.7922044314
 H        -3.4183297384        5.7254801480       -3.0816241646
 H        -1.7888692759        5.7365918033       -2.6777860482
 H        -2.7136782464        7.2914508088       -2.4032250932
 H        -5.1582423726        6.1555662930       -0.3028599776
 H        -5.1311119728        6.0223968280       -2.0594943855
 H        -5.4088975724        4.6188093260       -1.0274927515
 H        -1.9838852087        7.9413126266        1.7373959708
 H        -0.5140321972        7.0514387554        2.1791011590
 H         3.3274230189        9.0981188546        2.1726468893
 H         3.0087797239        9.9741761452        3.5994723113
 H         3.0066925512        8.1780389798        3.7126876431
 H         1.9517001361       11.3165563993        1.8714914807
 H         0.7954402869       11.3835749634        0.4969627338
 H         2.0890900148       10.2011756769        0.6739469076
 H        -1.5604880886       10.6372564534        2.0639290348
 H        -1.1068365582        9.9088826659        3.6251409780
 H        -0.3816522492       11.4224464704        3.0795976343
 Na       -2.2724831721       -1.2270586368        2.1826050300
