155

 C         6.9820423611       -3.5183315129       -7.4546169091
 C         5.6101743245       -3.2184113611       -7.0695804762
 C         5.2868766956       -1.6784246082       -6.7409465919
 C         4.0541254861       -1.2134123122       -5.8850621714
 C         3.2167809001       -2.1475432387       -5.0361246249
 C         6.5194225195       -1.0521213434       -6.0044944289
 C         5.0325315069       -1.0305052368       -8.1480248695
 O         4.7898915878       -4.1086805281       -6.9961901890
 O         3.9308228022        0.0018779231       -5.8527635002
 C         1.8102813646       -2.4186765247       -5.5560588685
 C         0.7443438370       -3.2132646784       -4.6325030656
 C        -0.6762307907       -3.4726184762       -5.1264483478
 C        -1.7041361157       -3.8885963292       -4.0321015532
 C        -1.5200680932       -3.3311898546       -2.5512337638
 O         1.0688508739       -3.3474376667       -3.4720463493
 O        -2.5794765197       -4.6481418766       -4.2796818090
 C        -1.2553636180       -2.3342604345       -6.0175365709
 C        -0.6166291137       -4.6457594266       -6.2070963057
 C        -2.7333033364       -3.7056363548       -1.7289479860
 C        -2.8879685802       -3.0465770493       -0.3586401720
 C        -3.8786063959       -3.7538880699        0.6441928164
 C        -3.0333010008       -4.2820536883        1.8695014546
 C        -2.6657303914       -5.8412698172        1.7902138439
 C        -4.8454202973       -2.6921485075        1.2275971652
 C        -4.6553380259       -4.8336495959        0.0123581941
 O        -2.3854868086       -2.0029674828       -0.0288694714
 O        -2.5285709663       -3.5926454378        2.7239692571
 C        -1.3202154811       -6.2997904716        2.3744613696
 C        -0.2986769510       -6.4257821777        1.2809407351
 C         1.3011952634       -6.2154128622        1.6884593105
 C         1.7300285115       -4.8090856291        2.0060874459
 C         1.9349391348       -3.8168086400        0.8428240137
 O        -0.6222459190       -6.7760560018        0.1780559174
 O         2.0256541893       -4.4022894126        3.1029593370
 C         1.5327777129       -7.1411450415        2.9347313714
 C         2.1405124375       -6.7184344474        0.4633371426
 C         2.3941204137       -2.5312775923        1.4361486953
 C         1.2628355481       -1.7322809052        2.1357488189
 C         1.5646768913       -0.6379979838        3.3303281589
 C         0.4127191095        0.4783243650        3.2879682876
 C         0.0711750103        1.2010934778        4.5999904399
 C         1.4485796816       -1.6113504873        4.5159053166
 C         2.9642020249       -0.0881890370        3.1578285357
 O         0.1544134779       -2.1157167853        1.9434958941
 O        -0.1608566101        0.8022869607        2.2526504001
 C        -1.1705527472        2.1035239885        4.4063108197
 C        -2.4130692481        1.2093909173        4.3311828730
 C        -3.7033704943        1.9495588502        3.8223734713
 C        -3.4301807651        1.8811137559        2.1515619328
 C        -3.5488714989        3.1953241093        1.3905487303
 O        -2.2313102087        0.0184911220        4.4670277236
 O        -3.1569222077        0.7937247605        1.6453573762
 C        -4.9275014052        1.2203850310        4.2657935238
 C        -3.7633573222        3.3852410681        4.3437542488
 C        -3.5701780247        2.8125179415       -0.1552124075
 C        -2.7888444522        3.8635860061       -1.0589808692
 C        -3.3143543294        5.4125846788       -1.1423821814
 C        -2.7839451547        6.0535060470        0.2858245235
 C        -1.3070509749        6.4924379293        0.2426223825
 C        -2.4724207181        5.9285870739       -2.3939172091
 C        -4.8495117397        5.5360921113       -1.2441673564
 O        -1.7293646013        3.5385526375       -1.5237266773
 O        -3.5184889041        6.1335728412        1.2074394527
 C        -0.8714063222        7.4963802857        1.3887757707
 C         0.2136428182        8.4903204066        0.8686968246
 C         0.5831646916        9.6654006773        1.9248457221
 C         1.6935132855        8.9937335798        2.8960875133
 C         3.1998103600        9.2915195554        2.6195064021
 O         0.7093681286        8.3763822881       -0.2355249343
 O         1.3897125782        8.2422473357        3.7734969296
 C         1.3253617157       10.7965203728        1.1562494033
 C        -0.4763445156       10.1907791071        2.7769947829
 H         7.5299136410       -3.7074494849       -6.5168449479
 H         7.1755649158       -4.2643000845       -8.2322403959
 H         7.4254165232       -2.6230693010       -7.8808233863
 H         3.6491455262       -3.1067702154       -4.7690937758
 H         3.0537945197       -1.7618703124       -4.0264645809
 H         6.8475134103       -1.6205690474       -5.1683196454
 H         6.2772028348       -0.0229314806       -5.7171443450
 H         7.3795031572       -0.8880237276       -6.5898512770
 H         4.3180437516       -1.7679876643       -8.7347954390
 H         4.5179226833       -0.0519265450       -7.9835066022
 H         5.8945906241       -0.7486445812       -8.6997497184
 H         1.3390690483       -1.3804766210       -5.6352995054
 H         1.8583290762       -2.7406230448       -6.5935955276
 H        -0.5850594510       -3.7077538742       -2.0563115100
 H        -1.4419924643       -2.1943095320       -2.5448283831
 H        -1.0084738821       -1.3247166491       -5.6938804296
 H        -2.3505395848       -2.4804750979       -6.0340620544
 H        -0.9926010328       -2.3505153372       -7.1204438361
 H        -0.0366572807       -5.5089085486       -5.9572025922
 H        -1.6239565770       -4.7910928445       -6.5701230157
 H        -0.0818471431       -4.2117063749       -7.0743956926
 H        -2.6935539177       -4.7968263398       -1.4466841644
 H        -3.6773087719       -3.8576040928       -2.2151426741
 H        -3.5231970356       -6.3445130125        2.3866470310
 H        -2.6599365900       -6.1693673414        0.6807375682
 H        -5.4395678655       -2.1885838152        0.4257897692
 H        -4.2924474989       -1.9000570019        1.8604310135
 H        -5.6371142542       -3.1040915810        1.7815908086
 H        -5.4637551765       -4.4395355580       -0.6253851384
 H        -4.1560134557       -5.4898401026       -0.6907860903
 H        -5.2404715787       -5.4617644008        0.7034199537
 H        -0.9044006311       -5.6540135885        3.2017102798
 H        -1.5344426456       -7.3573727092        2.7550972777
 H         2.6825273545       -4.2223084594        0.1988479518
 H         0.9945444398       -3.6764951924        0.2918527165
 H         1.3601931860       -6.4489658108        3.7938320830
 H         2.5164767502       -7.6537982330        2.9414729577
 H         0.8716624193       -8.0284876579        2.8977186050
 H         2.0334921686       -5.9773857926       -0.3269655655
 H         3.2400902536       -6.8479215683        0.7014693905
 H         1.6915262714       -7.6476617180       -0.0044072400
 H         2.6812038884       -1.8125731612        0.6344263431
 H         3.2657876703       -2.5873058733        2.0754409877
 H         0.0327933334        0.5235255242        5.5293742303
 H         0.9582394525        1.9039867929        4.7140585515
 H         0.4887016105       -2.0800083844        4.6566063342
 H         1.7509055871       -1.0733685659        5.4240971699
 H         2.0579476050       -2.4896939101        4.3657293996
 H         3.1086645531        0.2973512369        2.1832621078
 H         3.2380845085        0.7078644928        3.8897083230
 H         3.6515687168       -0.9300173715        3.2567094401
 H        -1.1467186748        2.8915963361        5.1849709549
 H        -1.1233490113        2.6153745100        3.3610396328
 H        -4.3471541183        3.6975972916        1.7332301026
 H        -2.6262170527        3.8178016155        1.6566232834
 H        -5.0367997044        0.3393195811        3.6482263264
 H        -5.7496373117        1.9780410454        4.0960107803
 H        -4.9594487164        1.2577199674        5.3439343270
 H        -3.7271033325        3.3154814706        5.4790572498
 H        -3.0309110314        4.0416114556        4.0776359977
 H        -4.7340799218        3.7441717523        3.8950332266
 H        -4.5803244732        2.7865485443       -0.5175498367
 H        -3.1540237909        1.7173953837       -0.2158653725
 H        -0.6398831602        5.6469975761        0.2405672683
 H        -1.0561236147        7.0332237324       -0.7466306666
 H        -2.7483468777        5.3900125188       -3.2405966884
 H        -1.4649124836        5.7152137103       -2.2160626824
 H        -2.5658774130        7.0355422153       -2.5333623140
 H        -5.0645702998        5.9742380063       -0.2424178223
 H        -5.2650842452        6.1466360746       -2.0230786639
 H        -5.3587133104        4.5941022130       -1.2422343188
 H        -1.8662278839        8.1647268019        1.4789110631
 H        -0.6193641518        7.0186597623        2.3331919286
 H         3.4274640158        8.9186530962        1.5489366527
 H         3.4785497248       10.3616903560        2.6738112299
 H         3.8688974851        8.7758990238        3.3075964646
 H         1.6261764289       11.6236900484        1.8848191394
 H         0.6139118758       11.2520988806        0.4337187967
 H         2.1787293890       10.4699989407        0.5694815034
 H        -1.2879275421       10.4096890519        2.1148039692
 H        -0.9611703092        9.5341420277        3.5321478700
 H        -0.1597800703       11.1948434147        3.2082009444
 Na       -1.8510220271       -1.0396842847        2.2195336533
