155

 C         4.4327356116       -3.9879421883       -6.6943426147
 C         3.8623529425       -3.5453405911       -8.1188789422
 C         3.1693932212       -2.1523811134       -8.4510608869
 C         2.1064678125       -1.7407734227       -7.3286665313
 C         1.1614440113       -2.8728310346       -6.9094501444
 C         4.1418971680       -0.9193881447       -8.5933493367
 C         2.3331060815       -2.3205678729       -9.7456859740
 O         3.9434573984       -4.3177380099       -9.0189248558
 O         2.0713653586       -0.7053656669       -6.7417270222
 C        -0.1051980262       -2.2547882508       -6.3992049634
 C        -0.7574263596       -2.9854725853       -5.1970823978
 C        -2.3065665636       -2.7499479195       -4.9152795270
 C        -2.8106101090       -3.4534612550       -3.5941281048
 C        -1.8890503163       -3.4076200545       -2.2972702425
 O        -0.0152420712       -3.6387128243       -4.4342056441
 O        -3.8303373663       -3.9773545555       -3.6840504116
 C        -2.5295528885       -1.2788474671       -4.7330918007
 C        -3.2347075597       -3.2342927927       -6.0954358284
 C        -2.4398969798       -4.4149539025       -1.2626347675
 C        -2.8521778725       -3.7971366123        0.0198811197
 C        -3.5943795479       -4.4734385211        1.2035311108
 C        -2.4608916726       -4.4497742314        2.4266983264
 C        -1.9689438408       -5.8065697416        2.9208945331
 C        -4.7376509728       -3.5074578416        1.4391883508
 C        -4.1499498529       -5.8556288940        0.9219741335
 O        -2.6874853602       -2.5928151995        0.0822478102
 O        -1.9327103884       -3.5029654404        2.9341139682
 C        -0.4755933608       -5.8224181902        3.2378602424
 C         0.2747396126       -5.9783893017        1.8267917817
 C         1.8899419758       -5.6867155546        1.7136590229
 C         2.2413005071       -4.1811896153        1.8323354269
 C         2.1954580533       -3.2375899124        0.5995138021
 O        -0.2999120808       -6.5520271222        1.0026376903
 O         2.4398330519       -3.7334976830        2.9265127745
 C         2.5673440806       -6.4367644171        2.8574320274
 C         2.2987075821       -6.4451831318        0.4513869387
 C         2.4648978768       -1.7451693171        0.9545249823
 C         1.2501423922       -0.8471364638        1.5590458256
 C         1.7498317675        0.2647244235        2.6882619711
 C         0.5118215839        0.6282146720        3.6006638708
 C         0.5869996667        0.5652840062        5.1108615044
 C         2.8056485922       -0.4588215210        3.5929988704
 C         2.3976979781        1.5636022699        2.1033076723
 O         0.1346841728       -1.0916787539        1.2462981168
 O        -0.5383320018        0.9331725374        3.0287890863
 C        -0.6728788857        1.1674593944        5.7189696660
 C        -1.7995701839        0.6291891100        4.9431105858
 C        -3.1104398123        1.6197088076        4.5021590917
 C        -3.1348123949        1.6911596471        2.9359971838
 C        -2.6772890012        3.0211249264        2.2828927384
 O        -2.0170185930       -0.6146993133        4.8838982081
 O        -3.3401088615        0.7256978829        2.2378585972
 C        -4.4358069973        0.9631301168        4.8668730441
 C        -3.0749789935        3.1046407055        5.0974899864
 C        -2.4876287412        2.8137073957        0.6681991834
 C        -1.7224512383        3.9668491645        0.0400995375
 C        -2.4487910157        5.4113120939       -0.2161083203
 C        -1.8671419692        6.3027421699        0.9556890480
 C        -1.0821574950        7.6136370829        0.5434312641
 C        -2.1684435192        5.9185498140       -1.6252689302
 C        -4.0194688318        5.3589508786        0.0456423034
 O        -0.5585247736        3.8757349704       -0.3348652864
 O        -1.8651036334        5.9612195550        2.1233607978
 C         0.0785312860        7.8369880439        1.5180360323
 C         0.7684209408        9.1593056732        1.2367797632
 C         2.2905845322        9.1345500373        1.7174339488
 C         3.0632400808        7.9673994849        0.8549406379
 C         3.6455962125        8.2099875553       -0.5422534966
 O         0.1917110157       10.1377478879        0.8371951542
 O         3.0583593913        6.8894381872        1.3561681816
 C         2.8971991293       10.4453750238        1.2725589555
 C         2.4517385425        8.6418940133        3.1429289835
 H         3.6371845664       -4.1633909203       -5.9993483973
 H         5.0066266314       -4.9868396271       -6.8289288221
 H         5.2106946737       -3.2929388144       -6.2721934648
 H         0.8416112961       -3.6344386166       -7.6129282462
 H         1.6673677111       -3.5060461215       -6.0904562870
 H         4.7193217123       -0.9597212962       -7.7575574173
 H         3.5187649269        0.0368476431       -8.8038345422
 H         4.7274421723       -0.9529348727       -9.5894246654
 H         1.8627519762       -3.3576904808       -9.7754059648
 H         1.5383643708       -1.5153848338       -9.7616037338
 H         2.9841648467       -2.1322033305      -10.5763749329
 H         0.1205539800       -1.1692209503       -6.1308426765
 H        -0.9362270726       -2.0992224586       -7.1867165966
 H        -0.7995509905       -3.4648045108       -2.4464529886
 H        -1.9467920484       -2.3332947724       -1.9737723285
 H        -1.7311007243       -0.8367529883       -4.1856212553
 H        -3.5096100529       -1.0570283065       -4.3861185551
 H        -2.3648535286       -0.7884855665       -5.6674804552
 H        -2.8249186285       -4.1845232543       -6.4491734261
 H        -4.2779409300       -3.4803699449       -5.8158956595
 H        -3.2689904505       -2.4160249678       -6.7791257177
 H        -1.6472447255       -5.0655872229       -0.8943790149
 H        -3.1101437084       -5.2288508463       -1.6297915993
 H        -2.6013749942       -6.0993592051        3.7915982571
 H        -2.2426881343       -6.5359309537        2.1234560764
 H        -5.2771250450       -3.3530096882        0.5323689522
 H        -4.3306398272       -2.5535820175        1.8826183060
 H        -5.3315677761       -4.0570074154        2.2308673950
 H        -5.0073264493       -5.7623309585        0.3283220703
 H        -3.4392990027       -6.4770047881        0.3670080411
 H        -4.5053956057       -6.3582730429        1.8447723122
 H        -0.1941559192       -4.8655841175        3.7949331008
 H        -0.1666262648       -6.7127314694        3.8973199838
 H         3.0345739622       -3.5718224005       -0.0454876342
 H         1.2519676867       -3.2032667900        0.0476513838
 H         2.1131804339       -6.2131453621        3.7893636275
 H         3.6128595951       -6.1833908209        2.8495337889
 H         2.5364272324       -7.4893783904        2.7205685737
 H         1.7455331761       -6.1851764742       -0.3911958988
 H         3.4130434732       -6.2493175027        0.2614067531
 H         2.2665715249       -7.5957892340        0.4723686234
 H         2.7495437621       -1.1117508664        0.0565503508
 H         3.2209708679       -1.7346621831        1.7075339173
 H         0.6463936735       -0.4662946115        5.5273936182
 H         1.3578884206        1.1307332791        5.5782497892
 H         2.6061287254       -1.5357198428        3.6950847215
 H         2.7702731307       -0.0273307230        4.5784714163
 H         3.7998929356       -0.4777268203        3.0814413645
 H         1.7498628240        2.3993941074        1.8261721444
 H         3.1585280635        1.8603822936        2.8610308071
 H         2.7872883425        1.2888846505        1.1551339531
 H        -0.6369262122        0.8870999954        6.7622675849
 H        -0.6057038562        2.2319502885        5.5830764055
 H        -3.5915915212        3.8341968442        2.3433213170
 H        -1.8289356704        3.4023736341        2.6843740386
 H        -5.1831666056        1.6180007118        5.2050324309
 H        -4.3446579360        0.2486913143        5.6349555943
 H        -4.7348617630        0.4056120550        3.9997194135
 H        -3.2837259895        2.8847721106        6.1828042882
 H        -2.1811800990        3.5493156968        5.0585865142
 H        -3.8655809981        3.6820108757        4.7334790135
 H        -3.4532711034        2.6380634156        0.1962593349
 H        -1.8187586863        1.9530011954        0.6052963281
 H        -0.7026772344        7.3074002217       -0.4799710417
 H        -1.7648989379        8.3940970634        0.3978711600
 H        -2.4006001007        5.1908897782       -2.4723295387
 H        -1.1286837404        6.1752875580       -1.8147177158
 H        -2.7215020301        6.8035927401       -1.7841044192
 H        -4.3166269096        4.6103555488        0.7487525766
 H        -4.4688410484        6.3497335418        0.3883167621
 H        -4.3520326851        5.0702462155       -0.9769133417
 H        -0.3333457145        7.8984182846        2.4744956462
 H         0.6952752693        6.9621685974        1.5944078972
 H         2.9059504628        7.8528358744       -1.1767716831
 H         3.9231616471        9.2263335268       -0.7855848732
 H         4.5129653822        7.6473084456       -0.8496891971
 H         3.9483996954       10.4523915747        1.5449757790
 H         2.3870806766       11.2736767630        1.7670681996
 H         2.7829857518       10.6436078742        0.1930551980
 H         2.0133843254        9.3905317801        3.8264728230
 H         1.8799004152        7.7043139650        3.3851992569
 H         3.5011549399        8.4432525384        3.4613315389
 Na       -2.1114709994       -1.2347123338        2.0945723157
