155

 C         4.7322550327       -3.1760916681       -7.6081921098
 C         3.3485543047       -3.6018928339       -8.0474573563
 C         2.4348054443       -2.3757981698       -8.7006746138
 C         1.3130334727       -1.9033251119       -7.6789249010
 C         0.4142592151       -3.0680204767       -7.1549002101
 C         3.3524387808       -1.1794579812       -9.1515544606
 C         1.8167592504       -2.8594122516      -10.0219204933
 O         2.8847977601       -4.7400125267       -7.9289799171
 O         1.1032899639       -0.7029440901       -7.4069652556
 C        -0.8831934603       -2.4662341804       -6.5136432033
 C        -1.2165724531       -3.1589276100       -5.1841734054
 C        -2.5222203045       -2.3423030177       -4.4941110826
 C        -3.0907953948       -3.2560575060       -3.3977398623
 C        -2.2095719881       -3.2592138776       -2.0856136440
 O        -0.4983807973       -3.8753150641       -4.5745645312
 O        -4.0803365075       -3.9756324625       -3.6515032825
 C        -1.9651265015       -1.0005740047       -3.9911122698
 C        -3.5615011782       -2.0231512914       -5.5548164353
 C        -2.6694306400       -4.2966992662       -0.9797462792
 C        -2.8884967147       -3.5207053798        0.3846698131
 C        -3.2348740914       -4.3932275723        1.7141068119
 C        -1.9561626694       -4.4789534566        2.6734290969
 C        -1.4872185670       -5.7862121551        3.3313592494
 C        -4.2520759468       -3.5068905682        2.4946884830
 C        -3.9907074086       -5.6469326122        1.3690494370
 O        -2.7191189868       -2.2934267711        0.4247443329
 O        -1.3322216225       -3.4795984753        3.0024017159
 C         0.0708485868       -5.8276453558        3.3320436505
 C         0.5684934853       -5.5965339404        1.9755384600
 C         2.1073733352       -5.6413657990        1.6423276551
 C         2.4118586143       -4.0813615915        1.5702751575
 C         2.4537728475       -3.3697167002        0.2426590227
 O        -0.1772975748       -5.3945474549        1.0402574689
 O         2.5789847150       -3.4713960864        2.6440817009
 C         3.0910758154       -6.2432595881        2.6181439723
 C         2.3103781870       -6.4009046003        0.3086796663
 C         2.4555415385       -1.8589060471        0.4109033278
 C         1.3837476917       -1.3577903421        1.4379851959
 C         1.8159363812       -0.1862169390        2.3398280999
 C         0.5890719728        0.4338432846        3.1125413301
 C         0.5373522139        0.0817743741        4.5634953118
 C         2.8434857618       -0.7188987643        3.4363484187
 C         2.5173954297        0.9664674481        1.5570659697
 O         0.2293801992       -1.8328629707        1.4915065926
 O        -0.0811119418        1.3101410612        2.5603620483
 C        -0.6444538521        1.0445618415        5.2080883228
 C        -2.0614638613        0.5802890083        4.7981707849
 C        -3.1275189420        1.6349884553        4.4453785705
 C        -3.0741804820        1.7197280566        2.7923676296
 C        -2.7709312916        3.0086552606        2.1745573176
 O        -2.3964320674       -0.6434748588        4.7349694250
 O        -3.1577934222        0.7012113479        2.2228778061
 C        -4.5629074307        1.1839018082        4.8181146299
 C        -2.7873889222        3.0129741598        5.1912328227
 C        -2.8625181941        3.0393066446        0.6318207162
 C        -2.0363532713        4.1291483596       -0.1077854568
 C        -2.3492024189        5.6524685815       -0.0043130245
 C        -1.4532314580        6.0469261143        1.2546591344
 C        -0.3515645078        7.0019652683        0.9401675746
 C        -2.1001204758        6.2823554321       -1.3610699839
 C        -3.8585083411        5.8716688223        0.3752280851
 O        -1.2664753951        3.6012136349       -0.9197050821
 O        -1.8150645701        5.7769845429        2.3816025371
 C         0.3889842216        7.7177322823        2.1056557858
 C         1.1085167417        8.9772121729        1.6334097036
 C         2.7623810172        9.0041922453        1.6800110155
 C         3.1985951928        7.9006743354        0.5129690567
 C         3.4251462704        8.4042200033       -0.8834366048
 O         0.4747321084        9.9486809207        1.2403165226
 O         3.2375041164        6.6933923884        0.7779555972
 C         3.3221040996       10.3996234123        1.3612556523
 C         3.2346807271        8.4588495158        3.0461322244
 H         4.6516392550       -2.2768200142       -6.9001403808
 H         5.3027575881       -3.9514806944       -7.2043843653
 H         5.2271826782       -2.8093563556       -8.4719611972
 H         0.1527979791       -3.6698726066       -7.9707770711
 H         0.9089873942       -3.6313261736       -6.3764548694
 H         4.0548316868       -0.7468940386       -8.3700890998
 H         2.7338406359       -0.4006752130       -9.3540773614
 H         3.9883051270       -1.5016167593       -9.8827956286
 H         1.1706074342       -3.7056065406       -9.8300636939
 H         1.2930278983       -2.0467123552      -10.3917645700
 H         2.5712608377       -3.2226534119      -10.6664878286
 H        -0.6187371568       -1.4556429914       -6.3764359209
 H        -1.7181462810       -2.6137907114       -7.1849476100
 H        -1.1242082279       -3.1989702519       -2.2803064623
 H        -2.5287119933       -2.2382227141       -1.7470528077
 H        -0.9731457773       -1.1761509428       -3.4627967851
 H        -2.4754300643       -0.4537364652       -3.1543833243
 H        -1.8718092404       -0.3544163901       -4.8314325590
 H        -3.8552351349       -2.8367492426       -6.2742699808
 H        -4.4588030487       -1.5921852446       -5.1317541153
 H        -3.1291263789       -1.3428537486       -6.2510450670
 H        -1.9320630538       -5.0528236508       -0.7667698771
 H        -3.5179870459       -4.8220717123       -1.4042599332
 H        -1.8080030080       -5.8457031580        4.4362857706
 H        -1.9355549218       -6.6744626311        2.8148209420
 H        -4.9323491382       -3.0505268361        1.8210181462
 H        -3.6609897532       -2.8143266263        3.1057786140
 H        -4.8591257089       -4.1100892754        3.1338893531
 H        -4.8836140402       -5.3735548352        0.7361298425
 H        -3.5299981152       -6.4495743065        0.8218863864
 H        -4.3476541137       -6.1479908137        2.2773320113
 H         0.5469772821       -5.1949744614        4.0202664143
 H         0.3477636922       -6.8376880926        3.6341655111
 H         3.2872271850       -3.7485882046       -0.3361679443
 H         1.6386250876       -3.6217823768       -0.4035330381
 H         3.1588609982       -5.5636052594        3.5160444828
 H         4.0683755228       -6.0159772874        2.1464803813
 H         3.0158983764       -7.3291446177        2.8092245538
 H         1.9111158528       -5.7700449877       -0.5220045779
 H         3.3180925512       -6.6021200062        0.1647584961
 H         1.7263334926       -7.2672257369        0.3716218351
 H         2.3060963572       -1.3064261919       -0.5244421374
 H         3.3815809218       -1.5242597404        0.8452029711
 H         0.3173940791       -1.0005521457        4.7116579266
 H         1.4277606078        0.3712351468        5.1917104684
 H         2.4589032651       -1.4695662150        4.1146525588
 H         3.3047331193        0.1022206411        3.9425092137
 H         3.7161178274       -1.1528685709        2.9682359432
 H         1.7323352191        1.7656623914        1.4815758484
 H         3.3877946981        1.3607412009        2.0109259100
 H         2.8779089778        0.6125559256        0.6268723254
 H        -0.5094258016        0.9585678361        6.3424023493
 H        -0.5388923119        2.1131703394        5.0926633712
 H        -3.3666542728        3.7960552792        2.6070172811
 H        -1.6807000011        3.3018361254        2.5276972856
 H        -5.1317367146        2.1258824399        4.7236893002
 H        -4.5704390889        0.8133588095        5.8969857274
 H        -5.1158090355        0.4866914200        4.1197218533
 H        -2.3405853677        2.8471327102        6.1204602779
 H        -2.1060249438        3.7877250913        4.6436407418
 H        -3.7881968110        3.4819439287        5.4743090378
 H        -3.9055917958        2.9687312989        0.3231487946
 H        -2.4546728703        2.0497187126        0.2697798106
 H         0.4015900822        6.3918890244        0.3204668643
 H        -0.5757290432        7.6538103259        0.1551492147
 H        -2.9129342751        6.2037524453       -2.0713184400
 H        -1.2144433222        5.8915849879       -1.8022432034
 H        -1.8984458236        7.3686724140       -1.2713650943
 H        -4.2340497773        5.0271983239        0.8822902271
 H        -3.9933207496        6.8318495026        0.8303326057
 H        -4.3407420606        5.9140329695       -0.5718957013
 H        -0.2010706537        8.0748876950        2.9269726015
 H         1.0552497987        7.0787544634        2.4996241405
 H         2.8492495970        7.7695296914       -1.5747616256
 H         2.8799876722        9.3239411109       -1.1584298280
 H         4.4491469881        8.3534917952       -1.2860970180
 H         4.3935681351       10.4074638544        1.4223251916
 H         2.9217576728       11.0283579378        2.1675954952
 H         3.0111137144       10.8222627843        0.4048846292
 H         2.8864943517        9.0257923506        3.8418143614
 H         2.8655182964        7.4283655373        3.1685912041
 H         4.3820434686        8.4902577238        3.0531170708
 Na       -1.9291823206       -1.3893114673        2.4702623546
