155

 C         4.5602392009       -3.2625982279       -8.1935726338
 C         3.1028897324       -3.4789156570       -7.9344019883
 C         2.1140147372       -2.5639091757       -8.7706042394
 C         0.8754280557       -2.0915963199       -7.8634727452
 C         0.0133100614       -3.2022565243       -7.2381546447
 C         2.6663186689       -1.3139111737       -9.4286123079
 C         1.7308113004       -3.4007823742      -10.0709238895
 O         2.6479193972       -4.4015637911       -7.2637577066
 O         0.7380047454       -0.9027303335       -7.6100244524
 C        -1.2927257983       -2.5023210917       -6.6088579305
 C        -1.3731408912       -2.8448421961       -5.1663749520
 C        -2.5338512262       -2.1098807115       -4.2306470292
 C        -2.8681172607       -3.1381074713       -3.0657173541
 C        -2.2388170597       -3.0397128791       -1.7332357013
 O        -0.7631724340       -3.7014901735       -4.6247173554
 O        -3.8331171197       -3.9191418202       -3.2261104656
 C        -1.7912630805       -0.8040800189       -3.8272436970
 C        -3.8586226786       -1.7666753810       -4.8933264254
 C        -3.0427772770       -3.9567241014       -0.7203103717
 C        -2.8043031941       -3.5138030047        0.6985128385
 C        -3.2813024920       -4.3703030219        1.9437168233
 C        -2.0510898904       -4.4343656183        2.9213576108
 C        -1.4501052264       -5.8499618952        3.3404203212
 C        -4.4138119804       -3.6160978738        2.7109929889
 C        -3.8518214917       -5.7808477018        1.5984847038
 O        -2.5606812230       -2.3125646800        0.8245079128
 O        -1.4828980491       -3.4517765635        3.4121833386
 C         0.0645956076       -6.0224434890        3.1098388404
 C         0.5672901832       -5.7128467521        1.6918299320
 C         2.0876135153       -5.6692573499        1.4173439951
 C         2.6046166460       -4.1573565084        1.3836502944
 C         2.2545623236       -3.3492184402        0.1519577219
 O        -0.2589042151       -5.4531667902        0.7960180263
 O         3.1698789094       -3.7097400652        2.3865672684
 C         2.8306213741       -6.3462818460        2.6062476071
 C         2.4388696854       -6.3647377484        0.0550107874
 C         2.6621514873       -1.8950827630        0.2939501540
 C         1.6924568088       -1.1999524768        1.2937107250
 C         2.1158219200       -0.0209434479        2.2658386505
 C         0.7437185320        0.4330086599        3.0338015571
 C         0.5872551903       -0.0595305179        4.4578964294
 C         3.2959407399       -0.5022792981        3.0921869447
 C         2.4296800641        1.3166153369        1.5021411541
 O         0.5183044642       -1.6247554578        1.3023458096
 O        -0.1578596138        1.0149290174        2.4816009952
 C        -0.5434795903        0.7643295730        5.2675867456
 C        -1.9993631348        0.4924084668        4.7599485446
 C        -3.0059353859        1.6051082024        4.2471870831
 C        -2.9441916179        1.8513407448        2.7080643675
 C        -3.0886598027        3.1822466540        2.1270382573
 O        -2.4179752775       -0.6795280187        4.8331892639
 O        -2.7636845252        0.8923754508        2.0436107085
 C        -4.4875202166        1.0680940610        4.3150752617
 C        -3.0010407825        2.9515789428        5.0000653281
 C        -3.0374947267        3.1890615745        0.6097861228
 C        -2.2002722428        4.2062640999       -0.1897355773
 C        -2.3718439784        5.6981877024        0.1583439577
 C        -1.3279500128        6.1484668965        1.3252789415
 C         0.1120811558        6.5654098423        1.0365230107
 C        -2.0256500456        6.4451051472       -1.1673687836
 C        -3.7827416946        6.1653382014        0.6746377342
 O        -1.5394688309        3.8732924913       -1.1068856756
 O        -1.6878121076        5.9594633683        2.4465804415
 C         0.7782248403        7.3052623413        2.2809956114
 C         1.2783822024        8.6636505870        1.6781119214
 C         2.8007804449        8.7821329277        1.7174280779
 C         3.0961304704        7.8768248644        0.4435007192
 C         3.2479898864        8.5722015011       -0.9690205145
 O         0.5922533307        9.4806941469        1.0959929493
 O         3.2802380501        6.6705909639        0.5661524945
 C         3.2777226087       10.1848474735        1.5409226255
 C         3.5075696344        8.3536227060        3.0282683637
 H         4.9300628383       -2.2546168943       -7.9037585249
 H         5.1208225621       -4.0214802649       -7.7653998309
 H         4.6524816775       -3.2540637608       -9.2335141993
 H        -0.2289039309       -4.0072235583       -7.8994811962
 H         0.6310231269       -3.6456397437       -6.4126118939
 H         3.2753786597       -0.7175826080       -8.7275422548
 H         1.9304978744       -0.7785132753       -9.9240500506
 H         3.3724301538       -1.6092192336      -10.1810433781
 H         1.5418401588       -4.4298279623       -9.9083626634
 H         0.9033971690       -2.9414682618      -10.6254707904
 H         2.7207141247       -3.3767379395      -10.6602489912
 H        -1.2023533914       -1.4699975262       -6.7661526034
 H        -2.0917864821       -2.9826027238       -7.1544542018
 H        -1.2498697296       -3.4589614295       -1.8189390017
 H        -2.2462014640       -2.0384664520       -1.3848183532
 H        -0.8261825164       -0.8973113458       -3.3055301353
 H        -2.3730689097       -0.2534528567       -3.0972327791
 H        -1.6459830759       -0.2095016810       -4.6725619565
 H        -4.4615979426       -2.6051530858       -5.2799313301
 H        -4.4857970456       -1.2114101333       -4.2111989767
 H        -3.6825008732       -1.2486727182       -5.8202851761
 H        -2.5738821383       -4.9299473265       -0.8380423781
 H        -4.1218482136       -4.0106228568       -0.8760956390
 H        -1.6412425637       -5.7627301065        4.4148895023
 H        -1.9862049038       -6.6798256498        2.9219513821
 H        -5.3977796545       -3.7470972320        2.1643557746
 H        -4.1931208264       -2.5581072253        2.6417925460
 H        -4.4687502460       -3.9161385900        3.7453356810
 H        -4.7194526885       -5.7886701318        0.8580950639
 H        -3.2596927319       -6.5267920552        1.1293322786
 H        -4.3111175092       -6.2173241303        2.4673681767
 H         0.5415983178       -5.4242279819        3.7819625220
 H         0.4042587266       -7.0140920709        3.2935799293
 H         2.5084003297       -3.7883232523       -0.8158689396
 H         1.1756095426       -3.4795326491        0.0276439461
 H         2.4142819809       -5.8232401384        3.4804954293
 H         3.8684162479       -6.1399837031        2.4915242048
 H         2.6983240500       -7.4060640612        2.7081820617
 H         1.4518570346       -6.3394609479       -0.5064603609
 H         3.3218844648       -5.9957599230       -0.3772854219
 H         2.5743771198       -7.3821448629        0.2723215980
 H         2.5119062794       -1.2837412577       -0.5936326555
 H         3.7053701106       -1.7774055310        0.5819712290
 H         0.3373071224       -1.1283594431        4.4538876495
 H         1.6134556914       -0.0153121155        5.0049125612
 H         3.1917078045       -1.4651688146        3.5888097759
 H         3.4723433785        0.2228184580        3.8799190918
 H         4.1444814002       -0.6783611713        2.4476901252
 H         1.5815880639        1.5425575462        0.8071444385
 H         2.3836392928        2.0943216048        2.2202636573
 H         3.4388145384        1.3287723332        1.1014985690
 H        -0.6763681306        0.6140095334        6.3993063472
 H        -0.3499591479        1.8287680047        5.1782542911
 H        -3.9952005714        3.5484306069        2.5032388244
 H        -2.3622059188        4.0216315430        2.6432320825
 H        -5.0251698567        1.7000309207        3.6239312585
 H        -4.9894084170        1.3188106787        5.2601692062
 H        -4.5627266068        0.0035447059        4.1288563909
 H        -3.4364841808        2.8920243635        5.9621477293
 H        -1.9080463507        3.3122691324        5.1410004002
 H        -3.5545215855        3.7892584690        4.4816383399
 H        -4.0577293472        3.1865730749        0.3123188119
 H        -2.7126997835        2.1958724915        0.2406217633
 H         0.7775011405        5.6731746244        0.7061247532
 H         0.1744543668        7.1497958672        0.1361232017
 H        -2.7225649823        6.2721626145       -1.9330560789
 H        -1.0875884750        6.1825332810       -1.5962952616
 H        -1.9513127581        7.5489397726       -0.9778294341
 H        -3.7805119122        6.3017544645        1.7666421302
 H        -3.9633073379        7.0648780202        0.1677023770
 H        -4.5015930064        5.4116298097        0.4327545484
 H        -0.0791853939        7.3532159179        2.9569948080
 H         1.5416466958        6.7552743471        2.7387043114
 H         3.7111396702        7.9446806221       -1.7607640307
 H         2.2680179626        8.7539803242       -1.4231817771
 H         3.7611484078        9.5347337476       -1.0060894476
 H         4.3106347769       10.2180671686        1.2474166108
 H         3.1033701952       10.6963880150        2.4911398792
 H         2.7549628588       10.6798188386        0.7366187954
 H         3.0506840078        8.7963717592        3.8649656764
 H         3.5352626153        7.2865192578        3.0420856874
 H         4.5935629788        8.5931074789        2.9448320686
 Na       -1.4033312733       -1.0824363968        2.3948480732
