155

 C         2.4011275459       -3.5757214702       -9.2394357224
 C         1.1067550918       -3.0064612436       -8.6823710562
 C        -0.2199535426       -3.8558614637       -8.9629062175
 C        -1.5139681063       -3.3345133704       -8.1903128353
 C        -1.3674198428       -3.2340538231       -6.6216156429
 C        -0.3989591743       -3.6099160232      -10.5833930349
 C         0.0706881970       -5.3953371778       -8.5640262657
 O         1.0654965125       -1.8891205640       -8.1630371442
 O        -2.6019026070       -3.2485281218       -8.7007904652
 C        -2.4159004115       -2.3235294248       -6.0459486684
 C        -2.1001236504       -2.1135350699       -4.5334110980
 C        -3.1117425598       -1.3947898489       -3.7363214310
 C        -3.5432341915       -2.4194265899       -2.4830982907
 C        -2.3592939227       -3.2602876080       -1.7924784545
 O        -1.0284517028       -2.4310682387       -4.1092880964
 O        -4.6765304529       -2.3713428277       -2.0844254997
 C        -2.5301375242       -0.1485321082       -2.9894936872
 C        -4.2972328669       -0.9798581115       -4.6402250051
 C        -2.7878904585       -4.0094044886       -0.5720076660
 C        -2.5100967520       -3.2528244515        0.7507537725
 C        -2.7523589937       -3.8978280512        2.1854662933
 C        -1.4473240231       -4.0427536231        2.9346241550
 C        -0.8405282942       -5.4109134982        3.4140993644
 C        -3.7080170253       -2.8583587755        2.9769871671
 C        -3.4671328831       -5.2859789813        2.0969048943
 O        -2.1086499520       -2.0916061531        0.6639014390
 O        -0.9381375065       -3.0410129423        3.3917542655
 C         0.5605047149       -5.3684810942        2.8129717564
 C         0.4912142073       -5.2820387654        1.3322368598
 C         1.8448893883       -5.2072392354        0.4491897257
 C         2.4463725875       -3.8793155064        0.7672658340
 C         2.5697864450       -2.8025212188       -0.3604412533
 O        -0.5359549460       -5.4627290329        0.7674626245
 O         2.8845583888       -3.7037444194        1.8708119311
 C         2.8589096114       -6.3013833946        0.8057368650
 C         1.4039640057       -5.4664812420       -0.9675524830
 C         3.0594024621       -1.4579433083        0.1669523519
 C         2.0687762821       -0.8087429455        1.1408148368
 C         2.7559543850        0.0650832833        2.2864450500
 C         1.7239702747        1.1465275962        2.7605502201
 C         1.7333582336        1.7457166100        4.1644644546
 C         3.0586530957       -0.9661548208        3.4277071576
 C         4.0138909008        0.7916447842        1.7741212464
 O         0.8983731089       -0.9770720809        0.9573609680
 O         0.9522496834        1.5814019404        1.8763001481
 C         0.3034192302        2.2872243457        4.5783647559
 C        -0.5842536717        1.0964619510        4.5995021574
 C        -2.1798444559        1.1937913910        4.6835479080
 C        -2.6755725007        1.4146043464        3.1814298016
 C        -3.0148207362        2.8862277011        2.7543484471
 O        -0.0840235196       -0.0004694622        4.5727848939
 O        -2.6802352002        0.5680702333        2.3668697813
 C        -2.8470558497       -0.1234793388        5.1988408004
 C        -2.4894926871        2.3365252786        5.6557471048
 C        -3.3119348638        3.0318276388        1.3214327206
 C        -2.7920020772        4.1712938880        0.5106982207
 C        -2.2682909663        5.5967992669        1.1167488392
 C        -0.7623098847        5.3091733178        1.4767884034
 C         0.3132608458        5.3253605655        0.2829968434
 C        -2.3377284930        6.5696770641       -0.1741279758
 C        -2.9884380408        6.2242885148        2.3711091425
 O        -2.7490456844        4.0810046194       -0.7190286945
 O        -0.5136164037        4.9952019404        2.5989119356
 C         1.7333284016        5.7267368934        0.9421677599
 C         1.9489309122        7.1987970502        0.8004097372
 C         3.2782503381        7.8173140630        1.5301742275
 C         4.4290122830        7.9896624690        0.4395400581
 C         4.6471254709        9.3392898869       -0.1777918765
 O         1.1218578298        7.8958911306        0.2847363623
 O         5.0640451495        7.0142117491        0.0926769792
 C         2.7503390559        9.1251145673        2.1672276906
 C         3.7232849034        6.7744812276        2.5569426387
 H         2.2550020483       -3.9788143184      -10.2965009324
 H         3.1871803410       -2.8065655215       -9.2264607486
 H         2.6330713535       -4.4140466298       -8.6213506656
 H        -1.4473602457       -4.3477340995       -6.3098402029
 H        -0.3639639435       -2.7935771461       -6.4879597429
 H        -0.5119005716       -2.6410444566      -10.7219596116
 H        -1.3014933451       -3.9738946217      -10.9959336694
 H         0.4849133452       -4.0443029159      -11.1093732708
 H         0.5279591010       -5.5131882431       -7.6038969602
 H        -0.8683700410       -6.0150778760       -8.5370407535
 H         0.9937640506       -5.8006299360       -9.2006230975
 H        -2.3627334875       -1.3275332289       -6.4930176801
 H        -3.3737038977       -2.8266288548       -6.1929366948
 H        -1.9422245420       -4.0024970536       -2.5115516531
 H        -1.6195409683       -2.4918504250       -1.6559729225
 H        -1.4229974287       -0.3510868992       -3.0179908201
 H        -2.9425101154        0.0519887727       -1.9720946322
 H        -2.9095912551        0.6999748946       -3.5293905499
 H        -4.6265482004       -1.8587200156       -5.2168498225
 H        -5.0576090822       -0.5624647912       -3.9678380874
 H        -3.9455619007       -0.1620503244       -5.2265329687
 H        -2.4255701761       -5.0779296455       -0.4108756176
 H        -3.8740807648       -4.1805837669       -0.5919162525
 H        -0.7773447671       -5.5080252244        4.4936921229
 H        -1.3096650692       -6.2800140426        2.9489100141
 H        -4.7846507736       -2.8873674600        2.6603796732
 H        -3.4221424814       -1.8444629647        2.6977930187
 H        -3.6483369081       -2.9251142923        4.0532520678
 H        -4.3709682340       -5.0339126872        1.5908778108
 H        -2.9121156327       -6.0170544077        1.5025588278
 H        -3.7755468623       -5.5918839254        3.1270657982
 H         1.1330101076       -4.6381678507        3.2410456989
 H         1.0004262360       -6.2792916120        3.0198988561
 H         3.4079834032       -3.0486407358       -1.0277429652
 H         1.6968155799       -2.7527393883       -1.0688486845
 H         3.3582470573       -6.3297816728        1.8193619769
 H         3.7210417624       -6.1203795658        0.1014279490
 H         2.4688347502       -7.3542855836        0.6324360129
 H         0.5514161147       -4.7230994592       -1.3151510549
 H         2.1162039663       -5.2474962004       -1.7518210360
 H         0.9670088012       -6.4671889031       -1.0723445000
 H         3.2791457492       -0.8321149824       -0.6815145773
 H         4.0982360702       -1.5623270956        0.5911570598
 H         1.8769705452        0.7063816045        4.6205100916
 H         2.5510563462        2.4420583201        4.4639844994
 H         4.0726537818       -0.8143644666        3.7562233879
 H         2.8646971269       -1.9356024086        3.0171640249
 H         2.4051015966       -0.9634362549        4.2766261393
 H         3.8358213326        1.8384447550        1.4987476461
 H         4.8475884681        0.6978614292        2.4777352263
 H         4.3260447578        0.4390533448        0.8197888051
 H         0.3530075794        2.7442079177        5.5505956005
 H        -0.0402925375        3.1246529171        3.9793021433
 H        -3.7298750652        3.2809709534        3.2637274179
 H        -2.2021769904        3.5278071770        3.0594171084
 H        -3.7778703606       -0.3672170675        4.6451620204
 H        -2.9600975752       -0.1357349300        6.3371332198
 H        -2.1609907556       -0.9909627811        4.9130111957
 H        -2.2914666746        1.9881611967        6.7654518899
 H        -1.9100799055        3.2134139825        5.4740399131
 H        -3.5872101899        2.5051509358        5.6440881338
 H        -4.4203894382        3.0514195766        1.1481862940
 H        -3.1338420935        2.1557102902        0.7191046704
 H         0.4500840086        4.4370315294       -0.3040554070
 H         0.0744188102        6.0382333211       -0.5769170107
 H        -3.4029102924        6.8929801081       -0.3192463650
 H        -2.0112706187        5.9809689534       -1.0087057221
 H        -1.8353037301        7.5211201805       -0.0324940471
 H        -2.7773540494        5.6609958871        3.3213241179
 H        -2.6754340139        7.2835762177        2.5652809202
 H        -4.0771878094        6.4463101019        2.2221163252
 H         1.7256769992        5.5059227738        1.9699578178
 H         2.5124128204        5.2180101593        0.3900079272
 H         4.8878707811        9.3070346199       -1.2375258094
 H         3.7164135063        9.9351935402       -0.0948092236
 H         5.4831196064        9.9104604139        0.2539648371
 H         3.4417941276        9.5861967157        2.8521541492
 H         1.8861470517        8.9810429372        2.7683397310
 H         2.4256662213        9.8117927570        1.3816075206
 H         2.8586929862        6.6094315564        3.1595442435
 H         4.0324572960        5.8143650073        2.0025737155
 H         4.5390260204        7.2573153232        3.2030034280
 Na       -1.0539842286       -0.9029910633        2.4077611633
