155

 C         2.1061070315       -3.5226029509       -9.6415355413
 C         0.6995918596       -3.0779813963       -9.1463096473
 C        -0.5565763892       -4.1471932132       -9.0228612377
 C        -1.7759812050       -3.4217382365       -8.2057882326
 C        -1.3676552160       -2.8672040640       -6.7491121655
 C        -0.8980523380       -4.3813090182      -10.4649365677
 C        -0.0564259625       -5.4436192050       -8.3427220108
 O         0.4958668156       -1.9093497525       -8.8050241027
 O        -2.9112819540       -3.2689881259       -8.6357133312
 C        -2.5616636232       -2.4189685802       -5.9004673664
 C        -2.1075353657       -2.0063107057       -4.4104753496
 C        -3.2687385610       -1.3643523543       -3.4179714974
 C        -3.6133388216       -2.4336852320       -2.3336153661
 C        -2.4843336745       -3.1550829449       -1.6040812061
 O        -0.9503472120       -2.1104488719       -4.1180865060
 O        -4.7524395495       -2.6433670004       -2.0477802251
 C        -2.5021759698       -0.0933082386       -2.8001274789
 C        -4.5339819320       -0.8774558702       -4.2084617282
 C        -3.0598854586       -3.8619514501       -0.4294473572
 C        -2.7600856504       -3.1557742272        0.9078587347
 C        -2.8899748528       -3.8541083775        2.2830826561
 C        -1.4578020939       -3.9972193952        2.7671729204
 C        -0.9958439965       -5.4490095271        3.2054406063
 C        -3.6393562028       -2.7954629262        3.1095297026
 C        -3.7035701275       -5.1595539407        2.1412569973
 O        -2.4294758647       -1.9527190302        0.8513999509
 O        -0.5966716808       -3.0919844056        2.8579623926
 C         0.3910647008       -5.7598912362        2.5867541763
 C         0.4480071122       -5.1999725400        1.0548602650
 C         1.8446174488       -5.3302301823        0.2901567910
 C         2.5840682061       -3.9092072703        0.6233849008
 C         2.3022167529       -2.6553562049       -0.2528595725
 O        -0.4943162900       -4.6746214277        0.6001692713
 O         3.2163140518       -3.8060564568        1.6389388011
 C         2.7237154104       -6.4376219629        0.8273099034
 C         1.4516836918       -5.5723435806       -1.2014531765
 C         3.0792369670       -1.4327291333        0.1973160632
 C         2.2838332904       -0.5544447668        1.1234109986
 C         2.8277851549        0.1534865843        2.3465963077
 C         1.9287370684        1.3620517806        2.7176372047
 C         2.0081307213        1.9975743859        4.0684233237
 C         3.0186836434       -0.7904489798        3.5351544716
 C         4.2658184774        0.7110373257        1.9817766313
 O         1.0713525919       -0.5326029245        1.0114173843
 O         1.2869363292        1.9222390812        1.8333405782
 C         0.6765374271        2.3081733070        4.9131646874
 C        -0.3391319201        1.2049535845        4.6127384403
 C        -1.8966869308        1.3446269210        4.8392208276
 C        -2.5450202688        1.4942276302        3.3729571889
 C        -2.9651430453        2.8588303499        2.9492577601
 O         0.0917803411        0.1239738697        4.1445248536
 O        -2.5129145760        0.6682275713        2.4629241111
 C        -2.4302665624        0.0616208647        5.4800502907
 C        -2.0563540645        2.4359927848        5.8590907659
 C        -3.5637525955        3.1233448175        1.6016008560
 C        -2.7462266228        4.1027928815        0.6198222956
 C        -2.1811466302        5.5040572868        1.1353189264
 C        -0.5893139520        5.0187785760        1.3555114919
 C         0.3372194910        5.1478953029        0.1555235288
 C        -2.4591996355        6.5832975930        0.0375238486
 C        -2.9483416824        5.9331380579        2.3966152644
 O        -2.5014259025        3.6956462060       -0.5568568369
 O        -0.2591796400        4.7301747079        2.4478341265
 C         1.7864549859        5.4982179824        0.6189584462
 C         2.0072471168        7.0077125448        0.7409346820
 C         3.1424320914        7.6104198223        1.5659849274
 C         4.3398473800        7.9068317012        0.5254557554
 C         4.5591903708        9.2078810846       -0.1448039932
 O         1.2867389759        7.7749733458        0.0835321240
 O         5.0050052072        6.9171447470        0.2858019911
 C         2.7127699093        8.9022852902        2.2429873890
 C         3.7148592651        6.6387524569        2.6686868961
 H         2.1992314850       -4.3234928536      -10.3862395963
 H         2.5899805541       -2.5193249131      -10.0055012518
 H         2.5958088499       -3.7904823647       -8.7078372359
 H        -0.7846221227       -3.7827983710       -6.3354943087
 H        -0.6602839998       -2.0761826996       -7.0284234773
 H        -0.7228451697       -3.4503879597      -10.9859355859
 H        -1.9000714527       -4.6574557955      -10.6335367372
 H        -0.1407924777       -4.9966240408      -10.9146118810
 H         0.1649632638       -5.2761018397       -7.2798494149
 H        -0.7338914242       -6.2968581237       -8.5759564601
 H         0.9249499226       -5.7708429178       -8.8290979757
 H        -2.8921120127       -1.5210509217       -6.4213141371
 H        -3.2144561291       -3.2992941619       -5.8288222744
 H        -2.0355685141       -3.8379114142       -2.3193168593
 H        -1.8301335997       -2.3947931724       -1.2470939852
 H        -1.3893355329       -0.3825659543       -2.6294866997
 H        -3.0171994135        0.1484565827       -1.8267103682
 H        -2.5750150806        0.7094218143       -3.4861825593
 H        -5.0372319141       -1.7374061633       -4.6810809931
 H        -5.1907121492       -0.6081849259       -3.3754303879
 H        -4.2610422009       -0.0828233881       -4.8323830615
 H        -2.6901297606       -4.9294594111       -0.2796084063
 H        -4.1343453702       -3.9798308950       -0.3337049673
 H        -0.9556395363       -5.4390218137        4.2805365914
 H        -1.7466130459       -6.1874900803        2.9559106066
 H        -4.6676590927       -2.5265230397        2.7316497544
 H        -3.0378245375       -1.9528158434        3.1731733471
 H        -3.7825651761       -3.1290026458        4.0774492152
 H        -4.4628137957       -4.7387081010        1.5097938727
 H        -3.1659136272       -5.9129508203        1.6029618866
 H        -4.0971234045       -5.5083279413        3.1392781269
 H         1.0090854080       -5.1198132781        3.0942744939
 H         0.7638975770       -6.7007924172        2.8051528926
 H         2.4588276801       -2.9561591445       -1.3066336622
 H         1.1867899528       -2.3917008670       -0.3404081981
 H         3.1466874184       -6.1595160737        1.8017641975
 H         3.5256574324       -6.6839747962        0.1498600325
 H         2.2776403845       -7.4209240462        0.8530922982
 H         0.7855180488       -4.8372272259       -1.6813345946
 H         2.2366023051       -5.6766762618       -1.9488044917
 H         0.8165388726       -6.4561561219       -1.2582584109
 H         3.3002157907       -0.7119938981       -0.6001437281
 H         4.1198445990       -1.6496640528        0.5819910898
 H         2.7497006476        1.3701575448        4.7034399197
 H         2.5847739478        2.8724279986        3.7385683217
 H         2.3113505788       -0.4654264264        4.2831960761
 H         4.0200567061       -0.9572427104        3.8701612055
 H         2.7702066033       -1.7892535913        3.2173767266
 H         4.4855349756        0.9004117770        0.9038301916
 H         4.4534782897        1.6802479283        2.4393274897
 H         4.9703535838        0.0952629556        2.4614475666
 H         0.8400043835        2.3808383586        5.9618160531
 H         0.1979864681        3.1951540308        4.5581033864
 H        -3.4816249539        3.3102705933        3.6793948832
 H        -1.9918749343        3.4939014809        3.0665263982
 H        -3.4714751690        0.1680923539        5.7445283554
 H        -1.8812086214       -0.2256854468        6.4046170547
 H        -2.4016217520       -0.7659443428        4.7731126657
 H        -1.4973426763        2.0946822490        6.7775865586
 H        -1.6057461125        3.3418938316        5.6393329016
 H        -3.0585382799        2.5924021084        6.1102895116
 H        -4.6269414752        3.5077613675        1.6722123262
 H        -3.5529613375        2.2377009011        0.9607975314
 H         0.2075105079        4.2820346193       -0.4969433006
 H         0.0513867472        6.0521997612       -0.5455810303
 H        -3.4209197151        7.0445452505        0.2944822582
 H        -2.5843506080        6.1010246100       -0.8670920859
 H        -1.7386948500        7.4155079223        0.0982612648
 H        -2.3684978766        5.8617460004        3.3326423307
 H        -3.2139089743        6.9519836218        2.3797748770
 H        -3.8393168016        5.3301047867        2.5122184850
 H         2.1398887133        4.8451082846        1.4454311814
 H         2.4433832895        5.5957191181       -0.2438256879
 H         4.2774178988        9.1742373084       -1.2126044047
 H         3.8642399240        9.9392916342        0.2740214146
 H         5.5243960089        9.7185982627        0.0032658782
 H         3.5032624818        9.6522130123        2.1601191153
 H         2.5255892266        8.8475590530        3.3053370804
 H         1.8169601504        9.3216159726        1.7455520119
 H         2.9464458084        6.3541154707        3.3558240432
 H         4.0483062507        5.7137106599        2.1703532244
 H         4.6788603655        7.0919241960        3.0757493737
 Na       -0.9042271452       -0.9051751908        2.0996773957
