155

 C        -0.5426469933       -3.6414782374      -11.0215657718
 C        -1.3094568518       -3.3009013455       -9.7146121569
 C        -1.6596008168       -4.4599332725       -8.6873571826
 C        -2.6491962275       -3.7879188946       -7.6443866189
 C        -2.0849344138       -2.7318451341       -6.6711075486
 C        -2.4238062644       -5.6165592022       -9.3988916009
 C        -0.2939443182       -4.9760423209       -8.0158566600
 O        -1.4911320696       -2.1443315604       -9.5102768750
 O        -3.8329057844       -4.0921874988       -7.5836757042
 C        -3.0079482882       -2.0347089109       -5.7629864666
 C        -2.3450832206       -1.5919124547       -4.4691071356
 C        -3.3388358613       -0.8632040852       -3.4946417683
 C        -3.7825402031       -1.8947928196       -2.5180585801
 C        -2.6838517348       -2.6515653687       -1.7534166862
 O        -1.2893753540       -1.9897162462       -4.0448476831
 O        -4.9960569943       -1.9430265113       -2.2593157161
 C        -2.6752168575        0.3650933226       -2.8347750269
 C        -4.6088547922       -0.3570391082       -4.1948626461
 C        -2.9895075516       -3.5270235647       -0.5000497864
 C        -2.7121721455       -2.6864724843        0.7716596983
 C        -2.9465431616       -3.3911524815        2.2314504769
 C        -1.5371661113       -3.7116921454        2.6880571557
 C        -0.9782877299       -5.2370745000        2.4437078885
 C        -3.5384494323       -2.3734029463        3.2220349920
 C        -3.8981597593       -4.5968279408        2.0825614702
 O        -2.2574375223       -1.5683581462        0.7019332924
 O        -0.7629820478       -2.8830396611        3.0438003190
 C         0.5146645910       -5.1587509216        2.1065643203
 C         0.7161200383       -5.0865217690        0.6301471157
 C         2.1057761655       -5.1013550091       -0.1252158997
 C         2.7292143302       -3.6498445955        0.1304659561
 C         2.1514945508       -2.4802685905       -0.6791618816
 O        -0.2634698585       -4.9408533786       -0.0667790826
 O         3.5500236797       -3.4781104452        1.0576215514
 C         3.1395018233       -6.2269097720        0.3168562102
 C         1.8221140420       -5.2523516888       -1.6617350599
 C         2.8663462925       -1.1758584324       -0.1140162317
 C         2.4290943579       -1.0095569669        1.3622980978
 C         3.5256223936       -0.0949398114        2.2118445511
 C         2.8077099957        1.3475240252        2.3130847555
 C         3.0639797120        2.2411406046        3.4671542553
 C         3.8269733723       -0.7155283782        3.6245036750
 C         4.8402062097       -0.0382008791        1.5050671571
 O         1.4122119316       -1.4520074039        1.7626986865
 O         2.0904801883        1.5703739687        1.3536725036
 C         1.7214883336        2.7116790825        4.0828898333
 C         0.6100552368        1.6395014438        4.3458201532
 C        -0.7057741775        2.0583841911        4.9710012506
 C        -1.7277239048        2.2449226369        3.8715799911
 C        -2.7005387470        3.4119935518        3.9568699290
 O         0.7127606677        0.5753846151        3.7787177431
 O        -1.7098203444        1.4354389558        2.9240978247
 C        -1.1695290571        0.8693402577        5.9360255588
 C        -0.6831019655        3.3365200344        5.9461744034
 C        -3.6191962924        3.4485215989        2.7250835334
 C        -2.8442984685        3.4907765608        1.3483238358
 C        -2.0903559206        4.7157926232        0.8830270121
 C        -0.5689531720        4.4993467130        1.4685888602
 C         0.5722495809        4.4999526677        0.5326628895
 C        -2.0535566797        4.9335777786       -0.6936916117
 C        -2.6709650229        6.0824240251        1.5137612969
 O        -3.1352335313        2.7132188164        0.4952442289
 O        -0.4550126736        4.5539420405        2.7031956317
 C         1.8619496073        5.1068228595        1.1194750849
 C         1.7972849833        6.5687191465        1.3370808494
 C         3.1910244523        7.1658590541        1.9413067078
 C         4.1355527032        6.9799519722        0.5903502338
 C         3.6264421025        7.5907920208       -0.6815201054
 O         0.8684510845        7.3505862392        1.0916903372
 O         4.9563543056        6.1050661009        0.6789663369
 C         2.9743358875        8.6975726286        2.3731314555
 C         3.7352426471        6.3626672854        3.1111890907
 H        -1.1599124494       -4.1669846501      -11.7601101728
 H        -0.1112989378       -2.7140722918      -11.4920100718
 H         0.2473067290       -4.2989626527      -10.7325813009
 H        -1.2757145041       -3.3091976812       -6.1321063843
 H        -1.5392540590       -1.9168288537       -7.2323516093
 H        -3.3078815588       -5.1059647857       -9.9595227531
 H        -2.9881961685       -6.2173621657       -8.7389753147
 H        -1.7793777700       -6.0906188148      -10.0415573799
 H         0.3226760516       -4.2194854559       -7.4217960171
 H        -0.6340516687       -5.8304871056       -7.4316409432
 H         0.3386375012       -5.4542504260       -8.6593223763
 H        -3.6315686315       -1.2685997082       -6.1713496537
 H        -3.7690500808       -2.7275690537       -5.3818026364
 H        -2.1596066881       -3.2927254202       -2.4749772717
 H        -1.8986945400       -1.9245891592       -1.6107314616
 H        -2.9501596568        0.5778189977       -1.7716522965
 H        -2.8258813539        1.2564642229       -3.4098382923
 H        -1.6662900210        0.3441393256       -2.9278547927
 H        -5.1222960017       -1.2297156461       -4.5968983109
 H        -5.3686888635        0.1115440724       -3.5418496307
 H        -4.3855353920        0.3062113639       -4.9926005413
 H        -2.3735497062       -4.4071844090       -0.4994477818
 H        -4.1050680666       -3.6785456408       -0.5690475414
 H        -1.1728283765       -5.8037604912        3.3411354670
 H        -1.4953505751       -5.6312522803        1.5814852929
 H        -4.4852087649       -1.8694730608        2.7698364944
 H        -2.8091388207       -1.6321996306        3.5076535593
 H        -3.8305959509       -2.8679317172        4.1318365669
 H        -4.8888608129       -4.2348291396        2.2664554509
 H        -3.9677050409       -5.0359520274        1.0889438187
 H        -3.7024281118       -5.3750243268        2.8586406123
 H         0.8585916781       -4.3112687088        2.5461660545
 H         0.9570173252       -5.9918365978        2.5276235581
 H         2.3120321000       -2.5506081966       -1.7971693160
 H         1.0973149335       -2.4413506295       -0.4400728369
 H         3.5985890112       -5.9619293067        1.2657056698
 H         3.8573305319       -6.3237833276       -0.4885112299
 H         2.6050790650       -7.1675248116        0.3933606729
 H         0.9654230130       -4.6876334592       -1.9257832465
 H         2.5777070369       -4.8230141407       -2.3179190478
 H         1.5811585812       -6.2728071387       -1.8576611783
 H         2.4670539639       -0.4133974853       -0.7907290510
 H         3.9400652099       -1.3087420261       -0.3185376248
 H         3.6739087605        1.7838430038        4.3095030856
 H         3.5895459660        3.1564445952        3.0700044520
 H         4.5333701517       -0.1442795704        4.2673866900
 H         4.4398108122       -1.6262909993        3.6480806867
 H         2.9026353136       -0.9345884719        4.1619602223
 H         4.8448862123        0.1870177017        0.4091380114
 H         5.3521237836        0.7702907902        2.0634129989
 H         5.4356718692       -0.9232612646        1.6815278335
 H         2.0971860897        3.2445998675        4.9887105432
 H         1.1168427856        3.3927487900        3.4483625251
 H        -3.2238105103        3.2090917605        4.8432188664
 H        -2.2509645733        4.5292726110        3.9533788635
 H        -2.1374676112        0.9206772100        6.3866010520
 H        -0.3699860262        0.6962820915        6.6683301071
 H        -1.2664578629       -0.0210964331        5.3407092714
 H         0.0237132472        3.2594453645        6.7088048358
 H        -0.4991954944        4.3352485677        5.5013572296
 H        -1.6411066052        3.3568155096        6.3068321441
 H        -4.2977204109        4.3502280646        2.8280693123
 H        -4.3145508390        2.6165287855        2.6972290191
 H         0.9219682767        3.4175426684        0.4201089164
 H         0.3446643770        5.0338940111       -0.4149063462
 H        -3.0693028122        4.8868189384       -1.1852483321
 H        -1.4744890209        4.1251237899       -1.0755500705
 H        -1.6746681028        5.9607119908       -0.8601178322
 H        -2.3545664964        6.1830804536        2.5678318440
 H        -2.1938821033        6.9386802419        1.0696929502
 H        -3.7399659152        6.2110583765        1.4154237159
 H         2.1288571942        4.7247216551        2.0745911956
 H         2.6574535967        4.8190807215        0.4952754173
 H         2.9376084591        8.3910768951       -0.5076924191
 H         4.3599614527        7.8328766549       -1.4205011145
 H         2.9463278345        6.8856951754       -1.1277435762
 H         3.9402718031        9.1993744922        2.3259368249
 H         2.6059769916        8.8768752833        3.3668405874
 H         2.2782069492        9.0666146657        1.6020243177
 H         2.9773322838        6.2571042620        3.8043680543
 H         3.9723913135        5.3509329994        2.9521748778
 H         4.6094063884        6.7914229504        3.5771290036
 Na       -0.6488191535       -0.6812471550        2.4510703488
