155

 C        -4.5424889592       -4.0724080004      -10.4875229122
 C        -3.5297430509       -3.5250116985       -9.5508684456
 C        -2.9091254861       -4.4089587754       -8.4718563715
 C        -3.2810107784       -3.9956420966       -6.9643741606
 C        -2.4922394408       -2.7913076858       -6.4269168869
 C        -3.2853487523       -5.9661920434       -8.6332141973
 C        -1.2832571467       -4.3746099490       -8.6474565765
 O        -3.3205864786       -2.3064276183       -9.5717068775
 O        -4.1153793011       -4.6490839280       -6.3837827852
 C        -3.0458251390       -2.2767324503       -5.0842590598
 C        -2.3178634808       -1.0730991455       -4.4797794204
 C        -3.3282758358       -0.0777778977       -3.6013007169
 C        -3.7100027748       -0.8171553136       -2.2504792477
 C        -2.6598568721       -1.0961449272       -1.1654108242
 O        -1.1117565016       -0.9925158836       -4.4745712561
 O        -4.7904463266       -1.3096301826       -2.0613999243
 C        -2.6820357468        1.2204186071       -3.1862409714
 C        -4.5683513363        0.2136178232       -4.4696092846
 C        -3.0095641552       -2.3669440797       -0.2639266205
 C        -2.1480463236       -2.3628778521        0.8707287499
 C        -2.4651996717       -3.3086861233        2.0512217269
 C        -1.1351353926       -3.6439348232        2.7237184235
 C        -0.6055259001       -5.1007165993        2.8286853566
 C        -3.4120658487       -2.4239950796        2.9491413697
 C        -3.3126311504       -4.4802217839        1.5215593182
 O        -1.1168952811       -1.7089852091        0.8538783066
 O        -0.5340956885       -2.7488763503        3.3161940398
 C         0.5295379696       -5.3533154368        1.8634292838
 C         0.3690605838       -4.8550156436        0.4204660478
 C         1.5564636584       -5.1523755175       -0.5155887925
 C         2.4963814613       -3.7910292780       -0.3332900109
 C         2.1758840783       -2.5435670664       -1.0846195248
 O        -0.6629484531       -4.2785960288        0.0361156062
 O         3.3332944228       -3.8006714026        0.5603549761
 C         2.4719458231       -6.3601399034       -0.0510621478
 C         1.0672763318       -5.3402797701       -2.0677443498
 C         3.1883144319       -1.3326842275       -0.6865420371
 C         2.7607546958       -0.6450560377        0.6400317618
 C         3.7982799657       -0.1629526020        1.6955522084
 C         3.2431155966        1.2914813465        2.1962353240
 C         3.2727700830        1.6870335907        3.7053338700
 C         3.9035015201       -1.3275199730        2.7734408995
 C         5.2780511022        0.2264418898        1.3209726639
 O         1.5952379381       -0.5546296922        0.9098904907
 O         3.0659360701        2.1980330010        1.4000997043
 C         2.0627598483        2.4746786927        4.1352281382
 C         1.1478362052        1.5179588063        4.8682980997
 C        -0.1824365059        2.2376550445        5.5294835079
 C        -1.2675217440        2.1078849024        4.3949372098
 C        -2.3189457325        3.1417281717        4.0660511866
 O         1.3199757041        0.2984040484        5.0145237220
 O        -1.4478476066        1.0371359683        3.7757562862
 C        -0.5758099689        1.3776435512        6.7668934657
 C         0.1116542048        3.7033703472        5.9916808786
 C        -3.2679532929        2.9032287974        2.8169378360
 C        -2.4214376199        2.8577324418        1.5536530252
 C        -2.0338963078        4.2738417720        0.8290320735
 C        -0.3660584785        4.1775197537        1.0571119944
 C         0.5333318873        4.3875386865       -0.0756995443
 C        -2.3831594187        4.2028022957       -0.7432028756
 C        -2.5619192131        5.4955338631        1.5545111335
 O        -2.2314292323        1.8404375406        0.9896614990
 O         0.1103091995        4.0154929300        2.1839820751
 C         1.8701101158        4.8732817049        0.4131396098
 C         1.8067201823        6.2091127978        0.9756576822
 C         3.1123357214        6.9534433828        1.4660342030
 C         4.2890755386        6.6894339422        0.5436676486
 C         4.4979275290        7.4707682789       -0.6678328165
 O         0.7257998641        6.7131743247        1.2257658288
 O         4.8690668548        5.6707566860        0.7599771730
 C         2.5890147434        8.4399048145        1.6114488565
 C         3.3120074144        6.4450381399        2.9184120998
 H        -4.1654105140       -4.7306845384      -11.2187578322
 H        -5.3661046878       -4.5485903179      -10.0204386078
 H        -4.8633284549       -3.0999282114      -11.0189894585
 H        -1.4649720602       -3.0485020480       -6.2997728418
 H        -2.5191269528       -1.9330147187       -7.1212518247
 H        -4.2498713421       -6.1667632728       -8.1994079556
 H        -2.7260768183       -6.7831049312       -8.1141538262
 H        -3.3260946587       -6.1236655725       -9.7189124444
 H        -0.7135530679       -3.4991951992       -8.4213229558
 H        -0.8426212291       -5.1906731943       -8.1428238063
 H        -1.0384999758       -4.5986380875       -9.6085124742
 H        -4.1093922607       -2.0237421271       -5.2241880236
 H        -2.9855845189       -3.0925682271       -4.4496304497
 H        -1.8412742411       -1.4602104917       -1.7315741487
 H        -2.3360791829       -0.3023306011       -0.4663464255
 H        -3.2421472908        1.6080198851       -2.3525122556
 H        -2.7578896596        1.8858896601       -3.9734990397
 H        -1.6753139624        1.2254318791       -3.0456686010
 H        -5.1411472645       -0.7027052081       -4.6613588218
 H        -5.3137920428        0.9122440677       -4.0676723049
 H        -4.3288658777        0.5922439461       -5.4844417276
 H        -2.7757745807       -3.2680555356       -0.9121019629
 H        -4.0560108859       -2.4544049222        0.0474322208
 H        -0.2953591313       -5.2633808759        3.8775614300
 H        -1.3747408008       -5.8695812957        2.7075644221
 H        -4.2321453261       -2.1193210295        2.2087185535
 H        -2.9840500021       -1.4823027967        3.2855930790
 H        -3.9137960779       -3.0083837740        3.6780467561
 H        -4.3844988540       -4.3700462073        1.6534925547
 H        -3.2085556564       -4.7167046791        0.4397349682
 H        -2.9775201070       -5.3747972939        2.0339072320
 H         1.3922585091       -4.9487991047        2.2140920713
 H         0.7765398526       -6.3470164145        1.9827514996
 H         2.2610108664       -2.6774799288       -2.1479729759
 H         1.1404184822       -2.2014896724       -0.9519631969
 H         3.0718780267       -6.0325124786        0.8254549363
 H         3.0133456779       -6.6510779021       -0.9732557749
 H         1.8070255270       -7.1422802300        0.3948809441
 H         0.1772613696       -4.8339429022       -2.2219173114
 H         1.8742373102       -4.9481585725       -2.7259970194
 H         0.9351860892       -6.4163432941       -2.1181888018
 H         3.1082513395       -0.5644510051       -1.4723907396
 H         4.1999713107       -1.7042624464       -0.8175327345
 H         3.3925796114        0.9249558783        4.4950161562
 H         4.2024185823        2.3198745201        3.7957383286
 H         4.4771649810       -1.2396548331        3.6873899125
 H         4.3214735132       -2.2180328748        2.2703821692
 H         2.8922535029       -1.5601629724        3.0622855167
 H         5.3338972331        1.0831308445        0.6764862684
 H         5.7053815540        0.2913199172        2.2980076057
 H         5.8039711960       -0.5647864283        0.8010069436
 H         2.3447752093        3.2137685029        4.8722968848
 H         1.5691391522        3.1582192869        3.3809567169
 H        -2.9916498619        3.1803047173        5.0510548884
 H        -1.8685733925        4.1421670036        3.9747524967
 H        -1.6182232310        1.6589001442        7.0402483443
 H         0.1317141956        1.7118345767        7.5675412325
 H        -0.5464287059        0.2685804746        6.6217728534
 H         0.8971775824        3.8126603291        6.6254595562
 H         0.1732125487        4.4048183137        5.1544295304
 H        -0.8181659482        3.9830255130        6.4387858173
 H        -3.8278094834        3.8413030724        2.8824651030
 H        -3.7391446785        1.9267935568        2.8970445155
 H         0.4910498603        3.3827915762       -0.6929140094
 H         0.1397266002        5.0730318613       -0.8311112226
 H        -3.4505501982        4.3828741767       -0.8934676375
 H        -2.0451744360        3.2351936503       -1.0719692418
 H        -1.8859565843        4.8796038104       -1.4214560604
 H        -2.0282060958        5.4961700062        2.5450452559
 H        -2.3338496821        6.4846450937        1.1283011722
 H        -3.6590144406        5.5517879511        1.6990194117
 H         2.0944877383        4.2906473649        1.2417448969
 H         2.6955006915        4.6792651073       -0.2457694652
 H         3.9563101294        7.0221450469       -1.5135669135
 H         4.0674461215        8.4845466870       -0.5981154692
 H         5.5589546284        7.5804680167       -0.9188331866
 H         3.4123413015        9.0660582933        1.9053071948
 H         1.8321799055        8.4114348197        2.3612675653
 H         2.0544524708        8.7103052436        0.7083429559
 H         2.6312317031        7.0767469299        3.4837991694
 H         2.8602115704        5.4720592515        3.1325323562
 H         4.2738297418        6.4239137863        3.4946566815
 Na        0.2171557500       -0.7015483583        2.9078587723
