155

 C        -6.3996118002       -3.9159821655       -7.9378533520
 C        -5.0298355072       -3.5840565978       -8.6040664091
 C        -3.7413843313       -4.3838699200       -8.2006164786
 C        -3.5491376399       -4.1371593846       -6.6212977579
 C        -2.7921253869       -2.9701566897       -6.1181279134
 C        -3.8141092468       -5.8740599206       -8.4566348213
 C        -2.6333450759       -3.7796644261       -9.1031512277
 O        -4.9309533172       -2.6887241468       -9.4254168960
 O        -3.9282070806       -4.9689549738       -5.8272570416
 C        -3.5918756023       -2.0349971487       -5.1059817726
 C        -2.6044472604       -1.1116973397       -4.3943251474
 C        -3.2199706240        0.0870448046       -3.5272799722
 C        -3.7349176366       -0.5577898838       -2.1473433995
 C        -2.7337072700       -0.8988214951       -1.0963110963
 O        -1.3933712561       -1.2791943072       -4.4294741488
 O        -4.8640504251       -0.9842035289       -2.0773745281
 C        -2.0929279010        1.1252996632       -3.1276244833
 C        -4.3713185502        0.8587512414       -4.3375798806
 C        -3.1839629439       -1.8913671390       -0.0355586585
 C        -2.4448036939       -1.9496519178        1.2713762662
 C        -2.5699421849       -3.0988517020        2.2602107610
 C        -1.1783456350       -3.8196066528        2.2256215028
 C        -0.9889016862       -5.2718128321        1.9655777646
 C        -2.6420309800       -2.4378751777        3.6314576402
 C        -3.7388479945       -4.0657412765        2.0329940585
 O        -1.7529069283       -0.9098713032        1.4515940066
 O        -0.1568418485       -3.1236509785        2.5360191128
 C         0.3304127369       -5.6126223316        1.2267158186
 C         0.4268921188       -4.8637681177       -0.0819354503
 C         1.7137059378       -4.9586681147       -0.9662351226
 C         2.6952560984       -3.8448246989       -0.3920434245
 C         2.8739206472       -2.5780413037       -1.2195208801
 O        -0.5179141736       -4.1205288258       -0.4945502791
 O         3.2278290014       -4.0241235170        0.6919385524
 C         2.4216800075       -6.3225331966       -0.7382743270
 C         1.3230390826       -4.7909734623       -2.4313399911
 C         3.9687727263       -1.6727290994       -0.4895153254
 C         3.3363334333       -1.1049406326        0.7976767949
 C         4.2396891490       -0.4127971885        1.8988658012
 C         3.3970424459        0.9842773091        2.1881154588
 C         3.8740986581        2.0942102788        3.2396311619
 C         4.3657833235       -1.2851220241        3.2056908466
 C         5.5416265893        0.0599413496        1.2150048771
 O         2.1378882371       -1.1526482830        0.9462195664
 O         2.4311029155        1.3058608324        1.6117467716
 C         2.7506949037        2.6249668934        4.1048423506
 C         1.6944369826        1.6799444017        4.4658353213
 C         0.4538811220        2.1066778260        5.4151526895
 C        -0.8232236822        2.0968049697        4.4206564709
 C        -1.8330909254        3.3377757759        4.3428829639
 O         1.8230596603        0.4726812031        4.1870242843
 O        -1.0789109982        1.0335908696        3.8137129160
 C         0.2445938627        0.8571913035        6.3509272053
 C         0.5541088896        3.3831083502        6.1883463114
 C        -2.9762317455        3.0869715353        3.2006206984
 C        -2.6231139765        2.9413575203        1.6484790825
 C        -1.9301996357        4.1879433364        0.8334000589
 C        -0.3594082103        4.0776582476        1.1507725974
 C         0.5386063383        4.0398192557       -0.0366551243
 C        -2.3544174946        4.2331981104       -0.6174032337
 C        -2.4573018808        5.5252368761        1.4988837902
 O        -3.0416451564        2.0650117944        0.9544223592
 O         0.0136508155        4.0888899992        2.2646107346
 C         1.9625643713        4.5661290407        0.4015593156
 C         1.9950717599        6.1065443071        0.2762832184
 C         2.8925701462        6.9620136382        1.4203340908
 C         4.2458965376        6.7187742088        0.7514481756
 C         4.6747496963        7.7372246329       -0.2377609571
 O         1.3924639422        6.6813756112       -0.5987001649
 O         4.9107667747        5.7523592048        0.9507048897
 C         2.3532252424        8.3241619039        1.4984354102
 C         2.9220985007        6.2555316928        2.8394948919
 H        -7.0012377998       -4.5342041855       -8.5088218341
 H        -6.2047949487       -4.3718787160       -6.9902802583
 H        -7.0580058300       -2.9893399767       -7.6736691486
 H        -1.8626320431       -3.3228917725       -5.6985444540
 H        -2.4345117830       -2.3268751502       -6.9081409223
 H        -4.7702446808       -6.2349223609       -8.3040390067
 H        -3.0132673678       -6.3480604184       -7.8443631541
 H        -3.4494818831       -6.2394536239       -9.4355666311
 H        -2.6694649197       -2.7139550378       -9.0393095656
 H        -1.6547916396       -4.0803889898       -8.7071515052
 H        -2.7690087947       -4.0967629132      -10.0968250793
 H        -4.3999415232       -1.5942498237       -5.7019006517
 H        -4.1594193190       -2.6304200318       -4.4578139308
 H        -1.7381351580       -1.1841776607       -1.5111856145
 H        -2.5323491936        0.0041585311       -0.5703271970
 H        -1.8373907899        1.0829832635       -2.0774823568
 H        -2.5479334478        2.0187770438       -3.3910292509
 H        -1.2457716230        0.8795211171       -3.6320146418
 H        -5.1915469036        0.2015255745       -4.4884109252
 H        -4.7171219081        1.7362290709       -3.8328480503
 H        -4.0041583944        1.2534254787       -5.3157102217
 H        -3.0517360059       -2.9352211530       -0.3810499368
 H        -4.2859522919       -1.9730648901        0.1467574305
 H        -1.1563853476       -5.8825680000        2.8087145681
 H        -1.7490097588       -5.5129911623        1.2446008267
 H        -3.6397464578       -1.9773515870        3.8278490633
 H        -1.9428474134       -1.6698724060        3.6208679150
 H        -2.3467245260       -3.1126987131        4.4475860234
 H        -4.5452897660       -3.6822135607        1.3938414542
 H        -3.3175971078       -4.9807944922        1.5609673350
 H        -4.1563027636       -4.3017828454        2.9640860292
 H         1.1568762189       -5.2709946349        1.7560980519
 H         0.3046769407       -6.6969655693        1.1029029002
 H         3.1453457137       -2.8158467538       -2.2533686867
 H         2.0007336892       -1.9234108616       -1.3245163747
 H         2.6149085969       -6.4443429475        0.3173421599
 H         3.4397294028       -6.3806698128       -1.1186033750
 H         1.7532273467       -7.1211906980       -1.1054713490
 H         1.0919812148       -3.7594502151       -2.5917864887
 H         2.1584506429       -5.2187338757       -2.9703664899
 H         0.4085453250       -5.3020712064       -2.7376443334
 H         4.3341987699       -0.8452377544       -1.1000084414
 H         4.8074867826       -2.3200837627       -0.2141938433
 H         4.5345658713        1.6642634525        4.0066837163
 H         4.3862529938        2.9165168867        2.6372014116
 H         5.1423543945       -0.9530046628        3.8584795093
 H         4.4525860955       -2.3047803878        2.8085204249
 H         3.4387379557       -1.3280736754        3.7661897240
 H         5.3023710950        0.4910541888        0.2754085429
 H         6.0926376328        0.8309457296        1.7609057700
 H         6.2318057999       -0.8472437389        1.1764634833
 H         3.2140297363        2.8996765034        5.0990220917
 H         2.2979048867        3.5034762318        3.6944114984
 H        -2.3175117409        3.4162322831        5.2756870100
 H        -1.3891429171        4.2956514987        4.3052038666
 H        -0.5092460477        1.0490852710        7.0441287403
 H         1.1804706569        0.8113460925        6.8772345902
 H         0.1788210844       -0.0470805954        5.8113823104
 H         1.1737003951        3.2671999895        6.9886400610
 H         0.8988656099        4.2202794785        5.6252254560
 H        -0.4328211113        3.6546700187        6.5610876451
 H        -3.7467273883        3.8648251642        3.3308141771
 H        -3.6497153830        2.2620852241        3.4888963006
 H         0.6096231048        3.0001230114       -0.3623161344
 H         0.1450259381        4.6054391772       -0.8401402675
 H        -3.4573188666        4.3431790053       -0.6235387415
 H        -2.1730346638        3.2641285138       -1.1771250529
 H        -1.9796107226        5.0659050561       -1.2011909394
 H        -2.0514333001        5.6117334237        2.4954374673
 H        -2.0654187317        6.2967645350        0.8767463092
 H        -3.5143635287        5.5307712841        1.5074720653
 H         2.0581971193        4.1191930052        1.3544065459
 H         2.7248016219        4.1256340630       -0.2666504882
 H         3.9545469745        7.7908309738       -1.0568665598
 H         4.7242579756        8.7419408967        0.2849236712
 H         5.5981576778        7.5255979308       -0.8070122709
 H         2.9951382946        9.1329112815        1.8683065753
 H         1.3773539476        8.2676502174        2.0456812267
 H         2.0419530927        8.5367117155        0.4680801903
 H         1.9429167415        6.1399861219        3.3150470751
 H         3.4523807702        5.2280514424        2.7695879876
 H         3.5959819912        6.8360290125        3.5536198773
 Na        0.5226032477       -0.7266961321        2.4281596023
