155

 C        -6.4583162046       -4.0156074744       -7.4751691892
 C        -5.3637649935       -3.5926803009       -8.3738566469
 C        -3.9233032630       -4.3792034568       -8.0899313698
 C        -3.5569066694       -4.1705471544       -6.6788909418
 C        -2.7704457911       -2.9068562415       -6.1782655707
 C        -4.2622730028       -5.8115142937       -8.5676420614
 C        -2.7729868312       -3.7741996934       -8.9599568538
 O        -5.5643180433       -2.8644909041       -9.3073430392
 O        -4.0221942662       -4.8639759621       -5.7547835453
 C        -3.4452190110       -1.9220322797       -5.1600955894
 C        -2.5181420851       -1.0627190565       -4.3823167292
 C        -3.1952608441       -0.0303097113       -3.4881252434
 C        -3.7129748472       -0.7079872560       -2.1698690711
 C        -2.6469266380       -1.0664767908       -1.0973129882
 O        -1.3179747974       -1.1767524221       -4.4064526844
 O        -4.9103001720       -0.7413791314       -1.9685545578
 C        -2.1050540010        1.1310958918       -3.2109957635
 C        -4.3726089182        0.6222598582       -4.1349262463
 C        -3.2135632190       -1.9206085325        0.0491373769
 C        -2.3608353755       -1.8414798389        1.3298490145
 C        -2.4870092875       -2.9185053080        2.4912227310
 C        -1.2021822976       -3.8404834173        2.3748423538
 C        -1.1747782106       -5.2206077385        1.5904705613
 C        -2.4897919025       -2.3132970676        3.9305166509
 C        -3.8937224477       -3.6097347333        2.3609750224
 O        -1.5130025851       -1.0114982261        1.3956685734
 O        -0.1815889864       -3.3465936363        2.6606468419
 C         0.1991335349       -5.6066005939        0.9839715262
 C         0.4020832104       -4.8311876095       -0.3645787897
 C         1.8299469373       -5.0088202556       -1.1427199807
 C         2.8099469996       -3.9802445436       -0.4298491486
 C         3.2255369645       -2.7073485315       -1.2815905836
 O        -0.3094138379       -3.9864909737       -0.7331740606
 O         3.1559038932       -4.1629611464        0.7245055349
 C         2.4732337949       -6.4430170639       -1.0194303297
 C         1.6348060742       -4.6628687941       -2.6398100876
 C         4.0469169356       -1.7664122087       -0.4983151138
 C         3.2919970430       -1.0675574062        0.6837546090
 C         4.2004878662       -0.2875789849        1.8008114021
 C         3.3938853070        1.1233945541        1.9611915264
 C         3.7371234438        1.9344342381        3.1282487670
 C         4.3905634566       -1.2223507834        3.0832366080
 C         5.6233395263        0.0344669797        1.3496939688
 O         2.1324629755       -1.3489398017        0.8625290653
 O         2.3514164423        1.3242363904        1.3014285258
 C         2.5407583347        2.6628898895        3.8432405578
 C         1.6455803646        1.5485967606        4.5505707703
 C         0.4832966600        2.0687463629        5.4799253944
 C        -0.6915847028        2.0305012106        4.2554741161
 C        -1.7445938129        3.1368838511        4.3097090292
 O         1.7856146749        0.3907728702        4.1851103430
 O        -0.7531600788        1.0822385400        3.5355480219
 C         0.0512339986        0.9252426942        6.5786639443
 C         0.7115722437        3.4119789264        6.2041521154
 C        -2.8848461613        2.9520380470        3.3700790358
 C        -2.5958524392        3.0955469944        1.8000957364
 C        -1.9608852070        4.3203968226        1.0052306653
 C        -0.4519394554        4.1414203592        1.1203166344
 C         0.5323896542        3.9011089320       -0.0904575130
 C        -2.4501715314        4.2288976237       -0.4351073898
 C        -2.4503312616        5.6469359368        1.6755064554
 O        -3.1872373727        2.2581023604        1.1284323493
 O         0.0562343325        4.2143999928        2.3131839910
 C         1.9654863567        4.3334491710        0.3049138396
 C         2.0813750343        5.8783396166        0.2443301396
 C         2.9837030568        6.8913790514        1.3059166660
 C         4.3353926957        6.8151090891        0.7494950049
 C         4.8500992062        7.9452659608       -0.0909596163
 O         1.6222865660        6.4709176421       -0.7079903069
 O         5.0995586020        5.8507512533        1.0463172008
 C         2.2752050369        8.2985651025        1.2481568916
 C         2.8145724986        6.3185633455        2.7744328676
 H        -7.0516788283       -4.7635132612       -8.1208199307
 H        -6.2954204569       -4.3690250023       -6.4394509538
 H        -7.1068081080       -3.2351621873       -7.4355389641
 H        -1.8422993469       -3.2457150010       -5.6267312470
 H        -2.3050011548       -2.3186044836       -7.0075963208
 H        -5.2564040856       -6.1737901502       -8.0679219687
 H        -3.5354438765       -6.4900184356       -8.2496868697
 H        -4.2858236538       -5.9096367242       -9.6167563376
 H        -2.7084214527       -2.5991221538       -8.8942575628
 H        -1.7989289327       -4.1814671721       -8.5649432231
 H        -2.8934089221       -4.1452206018       -9.9927454677
 H        -4.1873130235       -1.3514109494       -5.7419832756
 H        -4.1941897741       -2.5830096545       -4.5674823983
 H        -1.9788270430       -1.6808641559       -1.6595848722
 H        -1.9159727460       -0.3257709055       -0.6641342050
 H        -1.2978800773        0.5534412676       -2.7133351619
 H        -2.6497707649        1.9582391287       -2.6843247985
 H        -1.8292255970        1.4338538602       -4.2825428716
 H        -5.2892493770       -0.0181406666       -4.1327909929
 H        -4.6221547620        1.5529156768       -3.5594509485
 H        -4.1134257279        0.9630416182       -5.1112957069
 H        -3.4590795556       -2.9463555783       -0.1548006942
 H        -4.1659804367       -1.5922922821        0.3818612153
 H        -1.4363125877       -6.0455900557        2.3291800833
 H        -2.0499290456       -5.3427599652        0.9129495542
 H        -3.4634195440       -2.1587055055        4.3541148420
 H        -2.0051424574       -1.2677776341        3.8800156770
 H        -1.8976398962       -2.9740986426        4.6000935121
 H        -4.5375639379       -2.8109003777        2.7144682080
 H        -4.1612112640       -3.8214890032        1.3513212902
 H        -4.0641584142       -4.5231375638        3.0187550850
 H         0.9513574996       -5.4266969927        1.8631589897
 H         0.1244399342       -6.6841953813        0.6281449462
 H         3.7916583893       -2.9316866252       -2.2167756349
 H         2.3746357353       -2.1023958624       -1.6346687401
 H         2.8382328511       -6.8131079435       -0.0092738675
 H         3.4351845581       -6.3364352894       -1.5691458769
 H         1.8047692304       -7.2086615110       -1.4758468662
 H         0.8195442679       -3.8625821195       -2.6447668811
 H         2.5352265189       -4.4487976738       -3.1469967775
 H         1.1775740744       -5.4764711673       -3.1512797610
 H         4.5684123414       -1.0253255349       -1.1282096736
 H         4.8139588413       -2.4693302293       -0.1385974076
 H         4.3239361622        1.3084644955        3.8177837021
 H         4.3779231744        2.6875398068        2.7190591154
 H         4.9159405409       -0.5985412787        3.8055130377
 H         4.8379449289       -2.1046922065        2.6921511484
 H         3.4799639053       -1.4853613649        3.6104116986
 H         5.5598001791        0.5780130757        0.3614467586
 H         6.1651738664        0.6383157895        2.0861403204
 H         6.2101824204       -0.8290009387        1.2883605760
 H         2.9508896326        3.4154299071        4.5014578166
 H         1.8965349543        3.1594322448        3.0315754728
 H        -2.0347779114        3.3498835615        5.3840416399
 H        -1.1500894188        4.1604084394        4.1325357265
 H        -0.9852694503        1.2513229174        6.9065576087
 H         0.7306753762        1.0283781793        7.4658822772
 H         0.1898941463       -0.1387983333        6.1865553503
 H         1.6988914459        3.2166552777        6.8206082459
 H         0.9441982688        4.3182409071        5.5602800820
 H        -0.0742764257        3.7152229662        6.8683495888
 H        -3.7710423126        3.4974803676        3.6521443912
 H        -3.3186938751        1.9809216102        3.4942420979
 H         0.5367412695        2.9171164964       -0.5149489331
 H         0.2677409263        4.6913921856       -0.8650475728
 H        -3.4996979433        4.4315259589       -0.6584107590
 H        -2.0596593285        3.3082388099       -0.8292479599
 H        -1.8880572325        4.9676948306       -1.0527403186
 H        -1.9539717319        5.7874018296        2.6744546144
 H        -2.2309138004        6.5280615247        0.9788144557
 H        -3.5836617570        5.4762496268        1.7713876957
 H         2.1269178687        3.8880275257        1.3559765277
 H         2.6463162686        3.9072781896       -0.4169728348
 H         4.8049871147        7.8499335021       -1.1785808496
 H         4.5029564726        8.8845637660        0.2431861177
 H         5.9166087069        7.8903091035        0.0405489685
 H         2.8187432060        9.0074971261        1.8712774185
 H         1.2843355661        8.2412543439        1.6468639513
 H         2.1367830671        8.7232253934        0.2640956588
 H         1.7456805820        6.3161030624        2.9543717541
 H         3.2138216162        5.3588047316        2.9191882103
 H         3.2298759889        6.9197312798        3.5200986400
 Na        0.4236251616       -0.6593036442        2.5639405100
