155

 C        -6.8926710375       -4.0179980122       -6.9161869096
 C        -5.8512943226       -3.7349577087       -7.9620729391
 C        -4.4254898865       -4.3354285856       -7.9260324191
 C        -3.8100469200       -4.0341816555       -6.5462951464
 C        -2.8625772891       -2.8291435030       -6.3225588424
 C        -4.4705326727       -5.8967901954       -8.2279393870
 C        -3.6368152057       -3.7616024203       -9.0563116931
 O        -6.0850505115       -2.8405606744       -8.7453455953
 O        -4.1244909239       -4.8048112195       -5.6130184448
 C        -3.4698095849       -1.9394887032       -5.2372938494
 C        -2.4506043544       -1.1031237693       -4.3969963022
 C        -3.2211180097       -0.0542167028       -3.4363509827
 C        -3.6783542204       -0.7193731857       -2.0780116410
 C        -2.5772443542       -1.3652329487       -1.1746717473
 O        -1.2696319820       -1.3260904357       -4.2668835441
 O        -4.8390019065       -0.7360162697       -1.7226380414
 C        -2.1628552664        1.1403368598       -3.1504014168
 C        -4.4931266822        0.5308328628       -4.0932087707
 C        -3.0875002433       -1.8073124803        0.1736011113
 C        -2.0819820340       -1.6192532136        1.3156693607
 C        -2.1528700348       -2.7347333212        2.5720951084
 C        -0.9334846886       -3.6243227696        2.2969348335
 C        -1.2404722030       -4.6928773421        1.1710477668
 C        -2.1049480995       -1.7760669190        3.8343869293
 C        -3.3962283317       -3.5076887167        2.6363375428
 O        -1.1112950334       -0.8450417652        1.3154934321
 O         0.2532289006       -3.3760307620        2.5455671782
 C         0.0024617584       -5.1915808615        0.5478889521
 C         0.4217951811       -4.5160478129       -0.7963471609
 C         1.7482231583       -5.0498545910       -1.3605904658
 C         2.8820831152       -4.1467110710       -0.6004296059
 C         3.4440028985       -2.8873566814       -1.2632063229
 O        -0.2809287933       -3.7149980138       -1.3703512790
 O         3.2267838787       -4.4921307064        0.5227742491
 C         1.9162917698       -6.4603533413       -0.9875620351
 C         1.7807308760       -4.8444265199       -2.9438512588
 C         4.2109509861       -2.0546423049       -0.3495725238
 C         3.3536056320       -1.3923041369        0.7073004512
 C         4.0432449081       -0.3750876451        1.7415390428
 C         3.0990853404        1.0035243334        1.8679775487
 C         3.6379333497        1.9613074964        2.9396499412
 C         4.3367253490       -1.1685514805        3.0372345413
 C         5.4296827368        0.0685606209        1.2404898202
 O         2.1358396902       -1.5867562860        0.7992492848
 O         2.2437302081        1.2907223562        1.0731768247
 C         2.6628346461        2.4463809294        3.9903337933
 C         1.7135619729        1.4463693934        4.5513768070
 C         0.3544647935        1.9784657032        5.1741075423
 C        -0.7990201764        2.0658068590        4.1257833767
 C        -1.9349175850        3.0880067474        4.4714278818
 O         2.0709369540        0.2650086842        4.4827148763
 O        -0.8250952832        1.2388641443        3.1924176356
 C        -0.0895549138        0.9751339282        6.2477055533
 C         0.6239349719        3.3338093098        5.9726367718
 C        -3.0661209490        3.1605002495        3.4948474631
 C        -2.6184569997        3.0721883728        2.0260737939
 C        -1.9579521165        4.4373113232        1.4180592693
 C        -0.3292683817        4.2578774912        1.4673186208
 C         0.4984976505        3.8090277232        0.1890099807
 C        -2.3354419400        4.4615155552       -0.1419107351
 C        -2.4119041585        5.7462676572        2.1456786704
 O        -2.9346661658        2.1654694723        1.3195734138
 O         0.2666715764        4.5169131521        2.5689458618
 C         1.9897765230        4.3153367238        0.1779351125
 C         2.1696048836        5.8381775750       -0.1196792449
 C         2.9503215954        6.8118448274        1.0979725817
 C         4.4405422194        6.8261742790        0.8273042425
 C         5.0608470226        7.9886449291        0.1519617407
 O         1.8464251767        6.2006329700       -1.2137181352
 O         5.1714249327        5.9159984142        1.1902992210
 C         2.3475522813        8.1865225023        0.9213131593
 C         2.6352360578        6.2849685072        2.4822116275
 H        -7.4854065539       -4.8541498508       -7.3546203587
 H        -6.6355773219       -4.1748649223       -5.8884081720
 H        -7.5799805275       -3.1566749011       -6.9356339243
 H        -1.8805606430       -3.1781403262       -5.8959635336
 H        -2.6636793212       -2.1965455296       -7.2053110077
 H        -4.4556634714       -6.5591373978       -7.3857161042
 H        -3.5287213912       -6.1630691105       -8.5755545200
 H        -5.2561626037       -6.0804201780       -8.8672815792
 H        -3.4844994846       -2.6370042888       -8.7711013394
 H        -2.7297651554       -4.4133990636       -9.2723761984
 H        -4.2966229943       -3.8752433261       -9.8853819021
 H        -4.3267881460       -1.5490253993       -5.7702225843
 H        -4.0180662817       -2.6162433335       -4.4409380136
 H        -2.2082769534       -2.1768655315       -1.7359651065
 H        -1.6662158316       -0.7475683222       -1.1497652180
 H        -1.2990032330        0.7988386385       -3.7476896355
 H        -1.7709877752        1.1393329172       -2.1386937264
 H        -2.6728286794        2.0249537449       -3.2924710872
 H        -5.3219143269       -0.1643099181       -4.2045529761
 H        -4.8732136546        1.2965969954       -3.4069223439
 H        -4.2131496752        0.8874255219       -5.0498136572
 H        -3.6669657297       -2.7221071178        0.1965357623
 H        -3.8369747864       -1.0369549823        0.3974017465
 H        -1.7881214407       -5.5340835875        1.5636416403
 H        -1.9365779416       -4.4605882118        0.4222386783
 H        -2.6143174008       -0.8420800220        3.7139791200
 H        -1.0953546199       -1.5022496789        4.1070829196
 H        -2.6246944890       -2.2917288293        4.7168250254
 H        -4.1518021367       -2.7274883472        2.5008970710
 H        -3.5904680830       -4.2919648419        1.9137166184
 H        -3.5727185220       -3.9970521997        3.6230508201
 H         0.9318142730       -5.1313931749        1.2445985856
 H        -0.2126655213       -6.2774209202        0.3107532222
 H         4.2073487345       -3.0949330332       -2.0764790019
 H         2.7577183195       -2.1709917476       -1.7462217062
 H         1.9357340332       -6.5871887456        0.1077422773
 H         2.8265804688       -6.8617679803       -1.4974874634
 H         1.1284554375       -7.1851899009       -1.2653072198
 H         1.8903300632       -3.7352065414       -3.2211675781
 H         2.5569991962       -5.3455392659       -3.3950813094
 H         0.8777555032       -5.2201024161       -3.3467677689
 H         4.7096722988       -1.2783964926       -0.9750857143
 H         5.0239130003       -2.6592208682        0.0852735434
 H         4.5947976361        1.5456083310        3.3731859125
 H         3.9630083571        2.8792128349        2.4362720626
 H         4.7414575125       -0.4153118150        3.7235035557
 H         5.1091649352       -1.8774355320        2.8129415564
 H         3.4465381835       -1.5214431031        3.5609680303
 H         5.3136629235        0.4020314986        0.2028670761
 H         5.8826490622        0.7857043616        1.9451016058
 H         6.1383433499       -0.7218584870        1.1023742736
 H         3.2570825633        2.7288779082        4.8461424403
 H         2.0910415452        3.3785417241        3.6430896041
 H        -2.2815169185        2.8288681445        5.4836763066
 H        -1.4585286456        4.2483461655        4.6205055492
 H        -0.9265462080        1.3951897692        6.7692643405
 H         0.6803039211        0.6763988428        6.9324251347
 H        -0.4763476472        0.1447009175        5.6379080336
 H         1.4349500458        3.0684827143        6.6881011292
 H         1.0030966546        4.2376228653        5.3723285964
 H        -0.1596528495        3.6034532345        6.5840433102
 H        -3.7277972843        4.0190269238        3.6581240956
 H        -3.6544245563        2.2624353261        3.6774163366
 H         0.4803224113        2.7909057904        0.1947838639
 H         0.1243161849        4.2111064584       -0.7678562280
 H        -3.3187087349        4.8887344722       -0.3110891329
 H        -2.1030032587        3.5394446450       -0.6417048621
 H        -1.6575296363        5.1277983476       -0.7068851022
 H        -2.0634700880        5.6117930584        3.1479919693
 H        -2.0989019423        6.6562970443        1.5984610789
 H        -3.4906909902        5.7054495361        2.0277406510
 H         2.4347877007        4.0258266442        1.2250398855
 H         2.4569076759        3.8140429269       -0.6463043175
 H         4.5587134515        8.4538632835       -0.7424223167
 H         4.9876750848        8.7616322794        0.9203615366
 H         6.1198455474        7.7619128449       -0.0964720243
 H         2.7455314591        8.9690177865        1.5823030278
 H         1.2808300866        8.1692067034        1.1576852036
 H         2.3593579747        8.5103240347       -0.1188308355
 H         1.5901379935        6.1355033266        2.6140334570
 H         3.1129079033        5.2428081892        2.4537761752
 H         2.9675343235        6.8892430536        3.3425878884
 Na        0.8645728195       -1.0819563546        2.6847347158
