155

 C        -8.2776604895       -4.6698050917       -6.0763599572
 C        -7.1112105835       -3.7734707060       -6.5230369749
 C        -5.7287159006       -4.4695269035       -7.2023813380
 C        -4.4669312236       -4.0996519353       -6.2318132598
 C        -3.7863923854       -2.7782173045       -6.2706556347
 C        -5.9710420415       -5.9672975478       -7.2496223112
 C        -5.3533864586       -3.9143476455       -8.6343785288
 O        -7.0540876806       -2.5779362799       -6.2977231251
 O        -4.1341446387       -4.8894078577       -5.4069162828
 C        -4.0350838764       -2.0332904432       -4.9099633879
 C        -3.0651313299       -0.9253720204       -4.7106935700
 C        -3.5862729570        0.2942314849       -3.7188642620
 C        -3.7256230697       -0.1484321255       -2.2354856679
 C        -2.5598720199       -0.3271507821       -1.2280938355
 O        -1.9522094832       -0.8774278726       -5.1245891048
 O        -4.7951535189       -0.4828116346       -1.7941781223
 C        -2.5785411306        1.4639777882       -3.7560621146
 C        -4.9491373644        0.7863845914       -4.1272612682
 C        -3.0204737948       -1.3124427149       -0.1446546479
 C        -2.0105413137       -1.5245716514        0.9969879221
 C        -2.2234142581       -2.7862307465        1.9900082164
 C        -0.8174322904       -3.5561773011        2.0583514108
 C        -0.6985305002       -5.0058715796        1.5701871887
 C        -2.5376485545       -2.2355116874        3.3310659219
 C        -3.4070448095       -3.6304927242        1.5042024816
 O        -1.0262866335       -0.8467832470        1.0986516093
 O         0.0560481683       -3.0227465606        2.6439648209
 C         0.6083234269       -5.2380353632        0.8868315967
 C         0.6706085346       -4.5456841159       -0.5253585497
 C         1.7837370208       -4.9498220094       -1.6435963747
 C         3.1038530815       -4.2054113814       -1.1944542750
 C         3.2486481619       -2.7275322915       -1.6158872882
 O        -0.1241490283       -3.6646841081       -0.7533669582
 O         3.8178953255       -4.7282863739       -0.3990068579
 C         1.9766375774       -6.4909479988       -1.6613118181
 C         1.2169732229       -4.5226434253       -2.9055962412
 C         4.3202296321       -1.9755172238       -0.7084776695
 C         3.6660235879       -1.2723522152        0.4534925981
 C         4.6299183171       -0.6935263789        1.6224972661
 C         3.8189749601        0.5423978990        2.2350741909
 C         4.3803412801        1.1957501924        3.4401680218
 C         5.0185179564       -1.8446860945        2.6879855084
 C         5.8866615023       -0.0798580247        1.0123259163
 O         2.4311658943       -1.2855380205        0.5265245651
 O         3.0784639547        1.1327677187        1.5502273112
 C         3.4008707557        2.1346647268        4.0477448812
 C         2.1592435341        1.2547215829        4.5117515987
 C         0.9079601514        1.8272412231        5.2465689627
 C        -0.1950313518        1.8221916768        4.0349063472
 C        -1.4239983666        2.5765296637        4.2899964657
 O         2.2069264885        0.0449610728        4.2308690108
 O         0.0196397209        1.4261428880        2.9202021989
 C         0.4166862864        0.7852214331        6.2466494004
 C         1.1377564933        3.3187467236        5.8225646979
 C        -2.6648865508        2.6134757748        3.3260370487
 C        -2.4035424617        3.2549621414        1.9477248581
 C        -1.6139383554        4.7157326333        1.7120148043
 C        -0.0871906928        4.4024286762        1.8950233426
 C         0.7254555488        3.7585872206        0.7643275458
 C        -2.0214684594        5.1976979806        0.2852756541
 C        -2.0791449299        5.6647913608        2.8643033648
 O        -2.6553808257        2.5160350530        0.9971117754
 O         0.5679974341        4.6358567028        2.9449119822
 C         2.0788003064        4.4047363741        0.7133760686
 C         1.9615583026        5.8297641335        0.1252388426
 C         3.0089907979        7.0286444194        0.5289807621
 C         4.3484606756        6.2876290924        0.7282700095
 C         5.5103429265        6.6881908447       -0.2458744070
 O         1.0682092189        6.1096402031       -0.6593490086
 O         4.5772789524        5.4658485652        1.5774360675
 C         2.9253361759        7.9962012739       -0.5432865694
 C         2.4266819399        7.6148201898        1.8040622388
 H        -8.0922303039       -5.7059943306       -6.3190746506
 H        -8.2411564146       -4.6520648221       -4.9242707329
 H        -9.1862183558       -4.3454350696       -6.4754882353
 H        -2.6958989908       -2.8768548799       -6.4284805995
 H        -4.1446062314       -2.1994795174       -7.1376649019
 H        -6.0037129523       -6.5005890105       -6.1937696530
 H        -5.2300102498       -6.5771308153       -7.8423613488
 H        -6.9073865921       -6.1292865440       -7.8816484464
 H        -5.5539143948       -2.8781751325       -8.6770710212
 H        -4.3835238087       -4.1400946675       -8.9324989221
 H        -5.9593051877       -4.5260103426       -9.2944995632
 H        -5.0414077478       -1.6810395766       -4.7920534119
 H        -3.7799927062       -2.7360723586       -4.1201066439
 H        -1.7139595218       -0.8723956612       -1.7001740990
 H        -2.2284417384        0.5744559691       -0.6956587031
 H        -2.7656278107        2.1759637528       -4.5674760509
 H        -1.4775190432        1.1599121598       -3.9068145118
 H        -2.7241721040        2.1687933914       -2.8301199501
 H        -5.6617740101        0.0034179582       -4.0105577854
 H        -5.2903416214        1.5430284325       -3.4331999076
 H        -4.8740765665        1.3070535832       -5.1096137088
 H        -3.2783717179       -2.2741871000       -0.6448415471
 H        -3.9275292679       -0.9138757047        0.3657152544
 H        -0.7056623891       -5.7946365586        2.4067526709
 H        -1.5015519987       -5.1515259834        0.8127964610
 H        -3.4760216327       -1.6542188195        3.2907971800
 H        -1.6879390982       -1.5442765743        3.6206863020
 H        -2.6160765061       -2.9569585000        4.1267341037
 H        -4.4052968794       -3.1727393044        1.6317056677
 H        -3.3678358135       -3.9697098728        0.4280565232
 H        -3.4469605149       -4.5667728839        1.9941831972
 H         1.3771937132       -4.9075427449        1.5339443660
 H         0.8020144445       -6.2703755785        0.7200120887
 H         3.5708295384       -2.6805205516       -2.6527218799
 H         2.2675200251       -2.3447204569       -1.5232871926
 H         2.4362001515       -6.9567891401       -0.7799085298
 H         2.7095594034       -6.7805770757       -2.4540233093
 H         1.1121433872       -7.1577994814       -1.8740014430
 H         1.5359895099       -3.6241808742       -3.2677048545
 H         1.2846047848       -5.2853689114       -3.7229411535
 H         0.1690215754       -4.2099177638       -2.7922162259
 H         4.9044644189       -1.2165257047       -1.2682297330
 H         5.1161273744       -2.6259354944       -0.3239841344
 H         4.7571135531        0.4818471576        4.1825206163
 H         5.2007283732        1.7391262122        3.0311063098
 H         5.5336136970       -1.4176554724        3.5155156198
 H         5.5091015765       -2.6588380668        2.1630930750
 H         4.0951144401       -2.2736898618        3.0387806447
 H         5.6920441064        0.7263027561        0.3734402894
 H         6.6670552525        0.1820940123        1.7129949630
 H         6.4174171827       -0.8898175078        0.4562644462
 H         3.8572456236        2.6401179988        4.8427989066
 H         3.0030303841        2.9298479593        3.3690602498
 H        -1.8114506417        2.1582203577        5.3855455947
 H        -1.2426028459        3.5610152977        4.5383016525
 H        -0.5678855779        1.0893145947        6.7500552392
 H         1.1176783129        0.6706250254        7.1247427172
 H         0.5169034739       -0.2206196847        5.8040382119
 H         2.0025453028        3.3550919697        6.5168975350
 H         1.2843505085        4.0139978038        5.0007498255
 H         0.2687916608        3.7309392818        6.3787375713
 H        -3.4327894906        3.1594085353        3.8841004675
 H        -3.1893067055        1.6096996528        3.1332369569
 H         0.7723128342        2.6618056094        0.8228979024
 H         0.2253089746        3.9064357119       -0.2199816049
 H        -3.0089625347        5.5626815572        0.4752013430
 H        -2.0031178931        4.3457653456       -0.4145603654
 H        -1.5257786238        6.0375001268       -0.1086291189
 H        -1.4931895069        5.4177165522        3.8272463176
 H        -1.8642382980        6.7297928421        2.6032813068
 H        -3.2219019068        5.6734088169        2.9330202886
 H         2.4612925685        4.5378476514        1.7355237486
 H         2.8975287938        3.9057246387        0.1558511422
 H         5.2037841892        6.7323638195       -1.2704367535
 H         5.9099335068        7.6535646607        0.1097564530
 H         6.3287510963        6.0052806812       -0.1250364601
 H         3.5905392306        8.8231510209       -0.4702948793
 H         1.9502801389        8.4986938932       -0.5785662928
 H         2.9540807347        7.5879120876       -1.5215526640
 H         1.3868707014        7.8641647348        1.6286911926
 H         2.5760758368        7.0785636918        2.6437050021
 H         2.8972994575        8.5504680190        1.8501368283
 Na        0.9570367497       -0.5974515598        2.2574444730
