155

 C        -8.6601670270       -4.4518702860       -5.9132831165
 C        -7.2567461297       -3.7647036135       -6.0486442201
 C        -6.0035643094       -4.4788845477       -6.7991913151
 C        -4.7058161942       -4.0760519139       -5.9524302218
 C        -4.3311298219       -2.5928012473       -5.8269970133
 C        -6.2773443449       -6.0158850227       -6.9051700987
 C        -6.1661935774       -3.8653420036       -8.2247131168
 O        -7.1572153755       -2.5811262901       -5.7458107279
 O        -4.1199397565       -4.9731503464       -5.3753335172
 C        -4.0361196530       -2.1165110091       -4.3454115881
 C        -3.2362218940       -0.8629443114       -4.5096718468
 C        -3.7032412781        0.3757026604       -3.7696708034
 C        -3.9753123690       -0.0622149479       -2.2746947009
 C        -2.7089570217       -0.2606669551       -1.3676993470
 O        -2.2364897482       -0.8184770607       -5.2051474739
 O        -5.0319304747       -0.4759608750       -1.8484523193
 C        -2.8244894746        1.5802194258       -3.7887179509
 C        -5.0825612148        0.8222281107       -4.2936479419
 C        -2.6492026375       -1.6902484782       -0.9874550242
 C        -1.8460119059       -1.7574193228        0.3493038055
 C        -2.0262857025       -2.9447423486        1.4421747196
 C        -0.6485508757       -3.4772682119        2.0125032181
 C        -0.3524304491       -4.9598281548        1.9057456809
 C        -2.6963671938       -2.2369908494        2.7046218508
 C        -2.9797936576       -4.0960451917        0.9055397637
 O        -1.1374184736       -0.7853523988        0.7058226776
 O         0.1241628984       -2.7488249440        2.5746368251
 C         0.5771719552       -5.4393977706        0.8501655905
 C         0.6869024874       -4.4536586518       -0.3519143894
 C         1.6827131300       -4.7654689683       -1.4923391304
 C         3.0035621711       -3.9358442829       -1.1411609065
 C         3.2910718073       -2.6395650370       -1.8669997722
 O         0.0575608250       -3.4293671830       -0.3985681394
 O         3.7308992189       -4.3272111189       -0.2245460404
 C         1.9886738141       -6.2513413508       -1.6302418746
 C         0.9555037226       -4.3309979573       -2.8693981320
 C         4.2515719648       -1.7918208637       -1.0856019787
 C         3.7940971222       -1.3178771442        0.2753981040
 C         4.7179324114       -0.6147378410        1.4370061075
 C         4.0819775753        0.6759852946        2.1615068033
 C         4.7994202594        1.0720657091        3.4714856921
 C         4.7318549473       -1.8081488765        2.4993815944
 C         6.1101349729       -0.3530976040        0.9080379975
 O         2.5896302653       -1.5214401458        0.5511936806
 O         3.1439077948        1.1667892028        1.6531898571
 C         3.8502587015        1.6517494361        4.4002144523
 C         2.3688642087        1.0706262454        4.3505624000
 C         1.1218029424        1.7539825360        4.9975622512
 C        -0.0573056887        2.0292276107        4.0552534799
 C        -1.3215261207        2.8188698308        4.5782233915
 O         2.2082562113       -0.0978678122        3.9859908368
 O        -0.1603853869        1.3747602167        3.0051858575
 C         0.6100828186        0.7146413491        6.0347537966
 C         1.6034320083        3.0673955722        5.6703155996
 C        -2.5996763571        2.8883661964        3.5790769322
 C        -2.1767652010        3.2542836189        2.1189478201
 C        -1.5874554326        4.6120374809        1.8609279146
 C        -0.0534267993        4.4372825737        1.9784203957
 C         0.7432128985        3.7137189798        0.8838879995
 C        -1.8744026847        5.0378420228        0.4277633431
 C        -2.2771566430        5.6850960692        2.7804119513
 O        -2.3098272652        2.4392377077        1.1958478730
 O         0.4256131496        4.6011014752        3.0958233969
 C         2.0872331115        4.5225020571        0.6363109419
 C         1.8975775091        5.9544073478        0.2357060229
 C         3.1864959877        6.8925488056        0.2872654323
 C         4.5075493732        6.1351267916        0.6938033267
 C         5.5915629655        5.9701262281       -0.3818618862
 O         0.8247132616        6.3634151330       -0.1322390541
 O         4.5010897618        5.6723146153        1.8320071028
 C         3.1655803353        7.6816769545       -1.1026923153
 C         2.7834893725        8.0367142356        1.4382801680
 H        -8.6036854754       -5.4878814851       -5.5303046689
 H        -9.2357000165       -3.7078090595       -5.2695921929
 H        -9.0517432520       -4.5612351726       -6.8505170607
 H        -3.3602864264       -2.4070426279       -6.4007246367
 H        -5.0966459833       -1.8443304209       -6.2335740874
 H        -6.8035619721       -6.4520059385       -5.9560329203
 H        -5.3610247426       -6.5933080519       -6.9124423616
 H        -7.0173611685       -6.2196369669       -7.7172648686
 H        -5.9203977174       -2.7616011566       -8.1419960961
 H        -5.4473800527       -4.2354258385       -8.9232604235
 H        -7.1721728143       -4.1100706822       -8.6380258849
 H        -4.7550141409       -1.9641457521       -3.5139216923
 H        -3.3007412565       -2.7974948718       -3.9077332823
 H        -1.7963499250       -0.1174648976       -2.0016630131
 H        -2.6899441857        0.4063680017       -0.5029342787
 H        -1.7708673362        1.3453226300       -3.9297630291
 H        -3.0668717413        2.2021913045       -2.8849777476
 H        -2.9003620173        2.3549585912       -4.6284861698
 H        -5.8045994807        0.1229756708       -3.9276580001
 H        -5.3291777780        1.7707330362       -3.8851506302
 H        -5.0684363094        0.8466363707       -5.4028376666
 H        -2.2470422388       -2.3550130743       -1.7273443938
 H        -3.6710319199       -1.9791323827       -0.8267529171
 H         0.2276738953       -5.1020013050        2.8885141800
 H        -1.3096523722       -5.5601801615        1.7308373522
 H        -3.6687033772       -1.8084678029        2.3682610239
 H        -2.1465620169       -1.2951360808        3.1086424468
 H        -2.9631412346       -2.9657577626        3.4260316658
 H        -3.9978948465       -3.7152754334        0.7311888446
 H        -2.6489660385       -4.4537028187       -0.1220914431
 H        -2.9655076780       -4.9843892556        1.4819642574
 H         1.6154761590       -5.5093961202        1.2012995112
 H         0.3836901880       -6.4927929015        0.5371424883
 H         3.6887282199       -3.0523587580       -2.8089835409
 H         2.3568719273       -2.1485030587       -2.0685473900
 H         2.3995841891       -6.6397671779       -0.6991058992
 H         2.5554890977       -6.6076692753       -2.4909478522
 H         1.1230850257       -6.9255458906       -1.6996591223
 H         0.9537290724       -3.3094903430       -3.1625981755
 H         1.3241711218       -4.9867027566       -3.6729318155
 H        -0.0781841145       -4.6611280736       -2.7910422504
 H         4.3734759015       -0.7971529808       -1.6114953602
 H         5.3034342066       -2.1443382597       -1.0239986096
 H         5.2248289547        0.1453664503        3.8691025479
 H         5.5868645571        1.7749355412        3.3739851435
 H         5.5213340902       -1.7066159206        3.2246810918
 H         4.7694990322       -2.8309482644        2.0859006700
 H         3.8420601393       -1.6276661254        3.0626467884
 H         6.1506859485        0.2618191172        0.0321399593
 H         6.7381447922        0.0696770461        1.6959543272
 H         6.5816070012       -1.2755371063        0.4784019447
 H         4.1921977105        1.5888495938        5.4295712355
 H         3.7756815389        2.7839920194        4.2065606084
 H        -1.6334668060        2.3575436209        5.6215795377
 H        -0.9746433605        3.7791656097        4.9346064589
 H        -0.1985622469        1.1499043873        6.6359487114
 H         1.3555699296        0.5790647033        6.7626205444
 H         0.2935684880       -0.2248313294        5.6316804574
 H         2.5180398858        2.8860948212        6.3851109173
 H         1.8092482880        3.8169192584        4.8017504428
 H         0.8495532667        3.5095068317        6.2665446253
 H        -3.3446393250        3.5624441157        3.9055734760
 H        -3.2720545252        2.0278847638        3.7071431614
 H         1.0443300036        2.6206595082        1.0966819501
 H         0.1825381035        3.5614281636       -0.0741610121
 H        -2.9683213889        5.1305050643        0.4243430903
 H        -1.4647777197        4.2742234161       -0.2796577214
 H        -1.4769742003        5.9915308263        0.1354581335
 H        -2.0880401954        5.4620850358        3.8727315038
 H        -1.7928538641        6.6462434428        2.6346633556
 H        -3.3716987700        5.9087150433        2.6825721490
 H         2.6199186776        4.5898235554        1.5646993135
 H         2.6934162264        4.0313750829       -0.1580217256
 H         5.3384244798        5.1642102374       -1.0722607348
 H         5.8775465568        6.9602074304       -0.8511353787
 H         6.5097600973        5.5580083345        0.0653349585
 H         3.6990024955        8.6339576601       -1.2396798142
 H         2.1263002282        8.0391315527       -1.3282973318
 H         3.4161013746        7.0405674110       -1.9686321208
 H         1.9592776494        8.7169878135        1.0674542335
 H         2.4342853594        7.4083138126        2.2485420694
 H         3.6247598227        8.6523958224        1.7920390933
 Na        0.7763094747       -0.6826003358        2.2114727912
