155

 C       -10.0527110748       -3.8642441044       -4.0034977999
 C        -8.6450139881       -3.3053625320       -4.4033470496
 C        -7.6424260602       -4.2228993443       -5.2145907602
 C        -6.0541899769       -4.0045016194       -4.9268804803
 C        -5.3167753739       -2.7962684314       -5.3049742297
 C        -7.9648276008       -5.7161311234       -4.8586436818
 C        -7.8680813505       -4.0421983941       -6.7126876234
 O        -8.3020530821       -2.1824367624       -4.0054594765
 O        -5.5077869097       -4.9971256969       -4.3942325107
 C        -5.3676364757       -1.7919630383       -4.1394607699
 C        -4.2489772110       -0.7566939684       -4.2595180721
 C        -4.3996101329        0.5362991069       -3.3343605847
 C        -4.3438654156        0.2054304504       -1.8491802777
 C        -2.9015916594       -0.1059958279       -1.0980376266
 O        -3.3456133770       -0.8146434160       -5.0921632079
 O        -5.4446653021        0.0149538475       -1.3098143173
 C        -3.3228535247        1.5337715411       -3.6973329302
 C        -5.7497776846        1.1113908374       -3.7683779631
 C        -3.1358475820       -0.4985176878        0.3775617915
 C        -1.8071207622       -1.0243437023        0.8932934627
 C        -1.5407165241       -2.4023139421        1.5162527203
 C        -0.1844174462       -2.9111365134        0.8973355598
 C        -0.1715745957       -3.5729153397       -0.4759101985
 C        -1.2199551437       -2.2015790691        3.1327207913
 C        -2.5395148155       -3.4837590986        1.5466785181
 O        -0.8314578249       -0.2740723467        0.7264935526
 O         0.8689743702       -2.8157392350        1.5068299298
 C         0.7307035261       -4.8220377135       -0.4541992720
 C         1.3585259675       -4.9737406502       -1.8823975055
 C         2.8732362805       -5.1310576173       -2.0820425643
 C         3.7295728977       -3.8710298498       -1.7240022598
 C         3.3555459457       -2.5983490959       -2.5730338933
 O         0.6798565841       -4.9815715353       -2.9068853147
 O         4.4413569630       -3.8260286661       -0.7921462840
 C         3.3314418268       -6.4075263604       -1.2512453618
 C         3.1581223825       -5.4613053819       -3.6222503942
 C         3.8613634719       -1.3495511172       -1.9700111001
 C         3.4299894148       -1.1105634389       -0.5275862491
 C         4.4801658744       -0.5483595267        0.5974105964
 C         3.8599706874        0.6574577525        1.3749730487
 C         4.5630375398        1.1050607216        2.6647089448
 C         4.5400342740       -1.7235725612        1.5786669867
 C         5.9408571151       -0.1654971818        0.1712928191
 O         2.2733492294       -1.1397604479       -0.2527207000
 O         2.8933784598        1.1865581490        0.8574469757
 C         3.5502820189        1.6136963699        3.7172607508
 C         2.3897077197        0.7140366248        4.1701456844
 C         1.3498434831        1.3629048270        5.1410557066
 C         0.0820487525        1.6359840286        4.3290039365
 C        -0.8888958363        2.6057296744        4.9972918270
 O         2.3604740381       -0.4596748344        3.8716541579
 O        -0.1577434014        1.2383287919        3.2492475484
 C         1.0285040659        0.2238737617        6.2164546348
 C         1.9906969329        2.5114251875        5.9206948259
 C        -2.1956884717        2.9767757913        4.4492836688
 C        -2.1190199770        3.2264623454        2.9579123669
 C        -1.5678173843        4.5617329953        2.4784099963
 C        -0.1185234889        4.4741257462        2.1154172743
 C         0.4568015337        5.0670183993        0.8408056397
 C        -2.4300486362        5.0715246801        1.3205077990
 C        -1.6446688672        5.6813439431        3.5763957285
 O        -2.5465195410        2.3376385789        2.2908030786
 O         0.6326271685        3.9309234610        2.9329845236
 C         1.9131716109        4.7777141347        0.5831481942
 C         2.6286345285        6.0319697064        0.1903163366
 C         4.0242489652        5.9391049111       -0.4345699003
 C         5.0626908318        5.0083826972        0.3209660509
 C         6.3356153958        4.5962710811       -0.5235621802
 O         2.1142937816        7.0946985223        0.2396550268
 O         5.1413839959        4.8431627629        1.5285387445
 C         3.7352116975        5.6300471531       -1.9611635673
 C         4.6896471600        7.4271869027       -0.3125744067
 H       -10.0426119518       -4.6580727722       -3.2886668444
 H       -10.6531668245       -3.0295197955       -3.4920180809
 H       -10.4842382568       -4.2181942639       -4.9421269482
 H        -4.2422000982       -3.1396958627       -5.3877257042
 H        -5.7515413425       -2.3588833512       -6.2472175330
 H        -7.5772354178       -5.9031680269       -3.8625668662
 H        -7.6615492491       -6.3475790595       -5.7563442332
 H        -9.1430064805       -5.8929688384       -4.8563573811
 H        -7.6996194315       -3.0525572381       -7.0589367330
 H        -7.2634456036       -4.6677622014       -7.2762896401
 H        -8.9467195253       -4.0768766889       -6.8530060653
 H        -6.3136192333       -1.2176944524       -3.9986723963
 H        -5.1909844745       -2.4063811238       -3.2186233996
 H        -2.4456483865       -0.9383932765       -1.6325052695
 H        -2.2398344303        0.7259706378       -0.9930935363
 H        -3.6489361937        2.4942896331       -3.4203657822
 H        -3.1810670344        1.3427639973       -4.7740574204
 H        -2.3698525450        1.2640862932       -3.1868791484
 H        -5.7736395886        2.2216316924       -3.7842207521
 H        -6.1120555403        0.7871968545       -4.7595577750
 H        -6.4892569801        0.8796666848       -3.0276061037
 H        -3.8470964343       -1.2820250592        0.4128924417
 H        -3.4324829670        0.3978091196        0.9247559668
 H        -1.1950057733       -3.7242901942       -0.8240374384
 H         0.4160387137       -2.9146127956       -1.0111308446
 H        -0.2400864378       -1.8637318228        3.1460577664
 H        -1.2557574137       -3.1261736075        3.6900480689
 H        -1.9044030268       -1.4592793316        3.5089029421
 H        -3.3759125691       -3.1062768916        2.1373605171
 H        -2.8737655180       -3.5619566970        0.5355000055
 H        -2.0113738244       -4.3685831066        1.9806697217
 H         1.5553112041       -4.5504856067        0.1827126974
 H         0.2364498043       -5.7384330590       -0.0062748967
 H         3.7290756699       -2.5213174031       -3.5847846112
 H         2.2734390324       -2.5122539118       -2.6333621191
 H         2.8665101409       -6.5847755180       -0.2995463791
 H         4.3961597186       -6.2889837808       -1.0057385933
 H         3.2059115513       -7.2834467534       -1.8739119686
 H         3.0037024922       -4.5893086424       -4.1623160281
 H         4.2408306797       -5.7551138281       -3.6981959073
 H         2.4695802448       -6.2802187247       -3.8057460265
 H         3.3713444253       -0.4331837254       -2.3903910102
 H         4.9469419278       -1.2397052795       -2.0215659076
 H         5.3648799065        0.5050188201        3.0743609135
 H         5.0375424611        2.0541973729        2.3150422955
 H         5.2212960909       -1.6904859213        2.4657852244
 H         4.9049755986       -2.5805945803        1.0642281183
 H         3.5078727885       -1.8502037060        1.9630922139
 H         6.0248363663        0.8513284714       -0.2629914150
 H         6.6166816929       -0.2686591094        1.0308740131
 H         6.2750815128       -0.8297669825       -0.6269811719
 H         4.1022219791        1.9269642677        4.6159679885
 H         3.0862814185        2.4458555190        3.2895241467
 H        -1.1061976307        2.3619294180        6.0992034500
 H        -0.3293011658        3.4276612383        5.0763384803
 H         0.1972173263        0.3847236666        6.8426792679
 H         1.9356327753        0.0638763109        6.7679354585
 H         0.8027988105       -0.6606510982        5.7248914553
 H         3.0523943586        2.1701111609        6.2865433892
 H         2.1970872337        3.4889113327        5.3269348621
 H         1.4148877203        2.7121212719        6.7791785629
 H        -2.5905065482        3.7788342304        5.0398360028
 H        -3.0259464864        2.2673474293        4.5413489328
 H        -0.2300737830        4.7434925845       -0.0010692989
 H         0.3345584789        6.1510498235        0.9915170849
 H        -3.5182360759        5.1570996665        1.5072909735
 H        -2.3032045258        4.3584823479        0.4696110727
 H        -1.8693150248        5.9906829326        1.0059117302
 H        -1.1917259733        5.3666759613        4.4853036748
 H        -1.2071112694        6.5750878962        3.2951328203
 H        -2.6580229208        5.7612104497        3.8767248914
 H         2.3525921145        4.2291075933        1.3981908837
 H         2.1220787417        3.9224645531       -0.1720037359
 H         6.1994593161        4.0935213395       -1.4905771337
 H         6.8623873271        5.5230316577       -0.5871852608
 H         6.8892869944        3.8637829688        0.0565176484
 H         4.7062263753        5.6815147784       -2.4010600461
 H         3.0570631756        6.3962944382       -2.2854774205
 H         3.3032936001        4.6492389156       -2.1653806021
 H         3.9056742363        8.1911899423       -0.6448472864
 H         5.0764589181        7.6853262988        0.7090384699
 H         5.6327549987        7.3668270854       -0.9599082594
 Na        1.2732280916       -0.3905576793        1.8363867162
