155

 C       -11.2051190752       -2.5806822611       -2.4079471008
 C       -10.1966573596       -2.7284462953       -3.5009960303
 C        -9.0735897314       -3.8999495305       -3.2339660755
 C        -8.1320571951       -3.3917022450       -2.0655096047
 C        -6.7590115746       -2.5687039863       -2.3571645492
 C        -9.7836456962       -5.2778616491       -2.7862245239
 C        -8.3229461254       -4.1606843029       -4.5460250087
 O       -10.0859257493       -2.1118936260       -4.5632765506
 O        -8.3243040475       -3.7425779526       -0.9075303248
 C        -6.9405861873       -1.1340627498       -2.6947516077
 C        -5.6727137784       -0.2788065599       -2.8843069420
 C        -5.3779696568        1.2292172275       -2.2617267523
 C        -4.7033238948        0.9442834304       -0.9582831147
 C        -3.5832035614       -0.1001446862       -1.0101820966
 O        -4.7242610207       -0.7932012998       -3.5244611539
 O        -4.9937687410        1.6013714652        0.0111940943
 C        -4.5577895452        1.9687156470       -3.3026011343
 C        -6.8209032864        1.8771888527       -1.9727777213
 C        -2.7564446735       -0.1961535891        0.3922435807
 C        -1.5923601892       -1.1113866788        0.2445396037
 C        -1.6481138230       -2.5360564061        0.9644875131
 C        -0.3251367330       -3.1812076279        0.4991251071
 C        -0.1868059467       -4.0855005929       -0.7603036410
 C        -1.5709560934       -2.2823832505        2.4941553062
 C        -2.9233587073       -3.2679797891        0.5802033854
 O        -0.6161053218       -0.5795668054       -0.2341815180
 O         0.6050942863       -3.0239585391        1.2374313633
 C         1.3819098048       -4.4108700142       -1.0017755829
 C         1.8310451563       -4.8691623997       -2.3103434161
 C         3.4045377647       -5.2016650632       -2.4745302362
 C         4.1062833905       -3.8745966100       -2.1267364485
 C         4.1924688447       -2.6777671778       -3.1762290288
 O         1.1409986252       -4.8415792046       -3.2858327774
 O         4.6515400233       -3.8125703449       -0.9994562106
 C         4.0547602543       -6.3164455726       -1.6271795570
 C         3.7094062224       -5.5461616768       -3.9270188425
 C         4.8370858104       -1.4765559489       -2.4870176700
 C         4.0560361269       -0.9668834932       -1.2325900181
 C         4.9867120538       -0.2194572902       -0.0986189122
 C         4.1307022789        0.6891878678        0.9109013479
 C         4.8797750037        1.0710040302        2.2377148699
 C         5.6251944551       -1.3981084685        0.6702351477
 C         6.1779903170        0.7740255433       -0.6755234829
 O         2.8747082340       -1.2361223894       -1.0544869019
 O         2.9967525758        1.0340872108        0.6166463330
 C         3.9752224679        1.0051232898        3.4727537099
 C         3.0092188847       -0.1519060959        3.4544894937
 C         1.8067483545       -0.0298678729        4.5892704741
 C         0.5708780590        0.6536344069        3.9203236906
 C        -0.1340743339        1.8970089047        4.5369526053
 O         2.9878742365       -1.1352554837        2.7138454663
 O         0.3348960358        0.4490611806        2.7267685272
 C         1.4416449879       -1.5744364059        4.8174790149
 C         2.3171996065        0.6118274237        5.9075607915
 C        -1.4276150666        2.4995786724        4.0001339421
 C        -1.2984523291        3.3257406212        2.7434904815
 C        -0.6208644355        4.8122503435        2.8746593536
 C         0.8511829993        4.5918828047        2.3538355090
 C         1.0977440854        4.9369645996        0.9196717717
 C        -1.4167683386        5.9032784080        2.0263589769
 C        -0.5133367796        5.2646704983        4.3864750528
 O        -1.5575714378        2.9616613678        1.6127180577
 O         1.6800150725        4.1817546324        3.1980430813
 C         2.6273110929        5.1376564893        0.7304497480
 C         2.8438345705        6.1322634122       -0.4755480927
 C         4.0899701558        5.5593560454       -1.4585836875
 C         5.2999601668        5.0296083865       -0.6689291182
 C         6.3738205069        6.0077300519       -0.2655331906
 O         2.1964483657        7.1373786747       -0.6605211000
 O         5.2278873244        3.8927033514       -0.2360693765
 C         3.3896505990        4.2705253499       -2.0987137705
 C         4.3249583711        6.5536556132       -2.6235079772
 H       -10.8395465398       -2.5289430985       -1.4004091983
 H       -11.8616119969       -1.6513483201       -2.5753223217
 H       -11.9151956056       -3.3605430188       -2.3917328163
 H        -6.3403361851       -2.7625248620       -1.3840745870
 H        -6.1826964238       -3.0966636935       -3.0538836818
 H        -9.9748893074       -5.4426801043       -1.7774118080
 H        -9.1367757156       -6.0431274467       -2.9824631920
 H       -10.7636612896       -5.4569941856       -3.2155840827
 H        -7.9168189721       -3.2338574103       -4.9163223472
 H        -7.4818322668       -4.9238083705       -4.3472792833
 H        -8.9705877070       -4.4607392168       -5.3047129993
 H        -7.4043200733       -1.0529084482       -3.6472675106
 H        -7.5518017972       -0.8297665971       -1.8603082542
 H        -4.0550562923       -1.0819602329       -1.1940966203
 H        -2.8306695347        0.1703935514       -1.7634655178
 H        -3.4864578782        1.7909209236       -3.1684276506
 H        -4.6137530315        3.0266164279       -3.3935643601
 H        -4.8347963800        1.5845118744       -4.2400119944
 H        -7.4653608788        1.1696906325       -1.4946311426
 H        -6.6719443931        2.7577870737       -1.3450777233
 H        -7.2087128891        2.2447781909       -2.8942077897
 H        -3.4275467193       -0.5867433001        1.1881819053
 H        -2.4055293432        0.8203023274        0.5140778295
 H        -0.6798287257       -5.0097475907       -0.7445610317
 H        -0.5057979747       -3.6035377840       -1.6962343603
 H        -0.5332242887       -2.0454096589        2.7605250503
 H        -1.9300427673       -3.1956912931        2.9502831057
 H        -2.1865521151       -1.5211685118        2.8371896896
 H        -3.8052658625       -2.7037891596        0.7890355693
 H        -2.8161417231       -3.5375519259       -0.5070289827
 H        -3.2394729551       -4.1012067073        1.1642614810
 H         1.8500224660       -3.3749148303       -0.8730373487
 H         1.7538225699       -5.0224044209       -0.1947393009
 H         4.7955488147       -2.9850080247       -4.0866061537
 H         3.1589853887       -2.5339928311       -3.5519112391
 H         4.2232256578       -6.0091554144       -0.6362901984
 H         4.8879939647       -6.6253196853       -2.2365222205
 H         3.4100444937       -7.1884603018       -1.5593758665
 H         3.5034375455       -4.7390225226       -4.6391742877
 H         4.5961431685       -5.9897572412       -4.2234742421
 H         2.9789705049       -6.2801923858       -4.2959475507
 H         4.9623799655       -0.5840540081       -3.1197633983
 H         5.7693536090       -1.8387147008       -2.1058890472
 H         5.6762597674        0.3282265016        2.3481950459
 H         5.3166425548        2.0527703860        2.1932209563
 H         6.2605852321       -1.0773670123        1.5274625100
 H         6.0813211194       -2.0902911496       -0.0650015303
 H         4.8133058937       -2.0511381886        1.0562543836
 H         6.4395716247        0.5360309778       -1.6520911735
 H         5.8371509771        1.8309613807       -0.5734555856
 H         7.0467977195        0.6977139020       -0.0082447454
 H         4.5017332637        1.0848075525        4.4192775746
 H         3.3359686253        1.9121367997        3.3523990875
 H        -0.1526956406        1.7792667805        5.6579621880
 H         0.6821738236        2.6807873033        4.4647892889
 H         0.5917107550       -1.4971838597        5.5064574182
 H         2.2440789313       -2.0277149934        5.3660832258
 H         1.2786032005       -2.2006029272        3.9062443965
 H         3.0868158452        0.0969315300        6.3829755611
 H         2.5954094981        1.6755601728        5.8192172390
 H         1.4876805088        0.5737979109        6.5298528120
 H        -1.8062882483        3.1617950927        4.7812843587
 H        -2.3391248211        1.8567088567        3.9028935728
 H         0.6859442692        4.1481877150        0.2461250111
 H         0.6258604413        5.9186935739        0.7193065841
 H        -2.3510749030        6.2075533534        2.4868509452
 H        -1.7158611183        5.4677501666        1.0448355017
 H        -0.8648272510        6.7940489712        1.9075692425
 H         0.0981101747        4.5855881915        4.8812396454
 H        -0.1118708877        6.2440808527        4.5043526565
 H        -1.5050376908        5.2844993966        4.8021085301
 H         3.1593270040        5.5534971849        1.5561368534
 H         3.2236165337        4.2043502332        0.5625756963
 H         5.9027455387        6.7575991192        0.3211110908
 H         7.1897906543        5.5557445268        0.2952814292
 H         6.8164352107        6.6066629609       -1.0231848912
 H         4.0254080431        3.7771696322       -2.7906600985
 H         2.5817179804        4.6070749657       -2.7380346237
 H         3.0235148638        3.6403118936       -1.3209521071
 H         3.4548281964        6.6162715390       -3.3816233206
 H         4.6005191320        7.5706920191       -2.3283098050
 H         5.0653290364        6.2247216284       -3.4249193883
 Na        1.4327659547       -0.7864742324        0.8542763739
