155

 C       -11.3615208103       -2.5046800050       -2.3939685623
 C       -10.1437678198       -2.6716702917       -3.2910876080
 C        -9.0812777098       -3.9012408520       -3.0821069438
 C        -8.1901351000       -3.3408326908       -1.9070378261
 C        -6.7955002323       -2.6451043481       -2.2133977036
 C        -9.8953454285       -5.0729048699       -2.5699718473
 C        -8.3183281636       -4.1821557137       -4.3952297846
 O        -9.9568417452       -1.9354692923       -4.2438096643
 O        -8.5521115451       -3.5449982948       -0.7739924746
 C        -7.0904219856       -1.1281248937       -2.6286271034
 C        -5.7180181975       -0.4402759031       -2.8380892986
 C        -5.5133059525        1.0838594447       -2.1083278092
 C        -4.7080469420        0.9621018888       -0.8317140990
 C        -3.3241530301        0.1921643096       -0.8709332766
 O        -4.8420532113       -1.0005495011       -3.3486053210
 O        -5.0241117041        1.5278579400        0.1879063525
 C        -4.7022955908        1.8599480564       -3.0851970368
 C        -6.8218635711        1.9706705826       -1.9715925279
 C        -2.6940708022       -0.1223306154        0.5008181879
 C        -1.5362724552       -1.0523642536        0.3201075186
 C        -1.6464243820       -2.5324980532        0.8214477194
 C        -0.2137789829       -3.1666653494        0.3892558990
 C        -0.1009543184       -4.1531116557       -0.7353261044
 C        -1.9161891101       -2.5972280569        2.3965926570
 C        -2.7758619524       -3.1066443010        0.0272229144
 O        -0.6035590180       -0.6188561166       -0.3300363509
 O         0.7655368104       -2.9650088296        1.1346851089
 C         1.4418733616       -4.4574983844       -0.9753700239
 C         1.9441952913       -4.7806856944       -2.3962322052
 C         3.4197275086       -5.1512978956       -2.5795565956
 C         4.2830751082       -3.8358033362       -2.1136930156
 C         4.0382284832       -2.6076456129       -3.1553001596
 O         1.1403491589       -4.7204174982       -3.3337806192
 O         4.7426502911       -3.7898183783       -1.0094686335
 C         3.6295925079       -6.3023584152       -1.4602859640
 C         3.6313167887       -5.6384178222       -4.0258893658
 C         4.7035805900       -1.3905682783       -2.5807615282
 C         4.1135405984       -0.9829913311       -1.1624503841
 C         5.0901559351       -0.3300634831       -0.1098371936
 C         4.0596361277        0.6134406595        0.8274423788
 C         4.7617852372        1.1227700725        2.1618123403
 C         5.8844397388       -1.5359206947        0.5885293993
 C         5.9896944457        0.7628460214       -0.7418375132
 O         2.9470785151       -1.2042881541       -1.0162021408
 O         3.0363761725        1.0124609331        0.3267901982
 C         3.7551556249        1.1971934449        3.3268132529
 C         2.9553193666       -0.1831694019        3.3652104604
 C         1.7562099556       -0.1619879205        4.3404292891
 C         0.6958619158        0.7909470126        3.7299340142
 C         0.0913069506        1.8177023925        4.6659640457
 O         3.0747389627       -1.1368206189        2.6590744300
 O         0.3488930741        0.7271459445        2.5964427427
 C         1.1346891714       -1.5099799097        4.6816599036
 C         2.2805050831        0.3700171068        5.6590859075
 C        -1.2201756163        2.2541321387        4.1528310656
 C        -1.0944978469        3.2381186225        2.9004668929
 C        -0.5703003534        4.7702021745        2.9941290120
 C         0.8946180525        4.7142105290        2.3839536054
 C         1.1175562317        5.0762161838        0.8908429240
 C        -1.5417587180        5.6324149479        2.2011368604
 C        -0.4839317867        5.3149940574        4.4253216293
 O        -1.5506405912        2.8652729354        1.8516156102
 O         1.7824698109        4.3127171272        3.0629471087
 C         2.5866123932        5.2864863037        0.7094545549
 C         2.9118993105        5.9580547988       -0.5719193741
 C         4.0578388796        5.3794453097       -1.4821081050
 C         5.3350217827        5.0847504756       -0.6791634688
 C         6.4804880028        6.0831896063       -0.7282525660
 O         2.3648020357        6.9938555572       -0.8978844920
 O         5.2932213781        4.1185337018        0.1017611214
 C         3.4097384203        4.0615388821       -2.1663143556
 C         4.4055984121        6.4486652379       -2.5492112925
 H       -11.1239322270       -2.4923267504       -1.3134672459
 H       -12.0110502361       -1.7450404029       -2.6465874040
 H       -12.0563916264       -3.4070550665       -2.4115996452
 H        -6.2811767239       -2.9405076770       -1.3021544187
 H        -6.2840168019       -3.2237994079       -3.0379894796
 H       -10.7170067684       -4.7313842158       -1.8305068907
 H        -9.2750742816       -5.9297284932       -2.1054404583
 H       -10.5246448790       -5.5079440984       -3.3039156724
 H        -7.6760344422       -3.3338970355       -4.7130571164
 H        -7.7633540536       -5.0470623534       -4.3094620641
 H        -9.0563393518       -4.1209387931       -5.2769627146
 H        -7.7220554120       -1.2238955974       -3.5362941192
 H        -7.6599407886       -0.7952377527       -1.7827010715
 H        -3.3887249823       -0.7726941258       -1.4113739118
 H        -2.6142286428        0.8857438326       -1.3553034348
 H        -3.6385097531        1.6004341375       -3.1388049051
 H        -4.6334178253        2.9615175337       -2.7982946903
 H        -5.0643932926        1.7427655137       -4.1647077114
 H        -7.7207617954        1.3120975069       -2.0776138629
 H        -6.9168864055        2.5207849634       -1.0386809964
 H        -6.7814368443        2.7223768937       -2.7667084486
 H        -3.4725451594       -0.5109987520        1.1402587355
 H        -2.1656794204        0.7821999021        0.8318487536
 H        -0.5262270119       -5.1831396581       -0.3826805617
 H        -0.6296427003       -3.9315130751       -1.6862326547
 H        -1.0085029010       -2.5526854741        2.9561295356
 H        -2.5043552420       -3.5141681638        2.6933222131
 H        -2.5182937099       -1.6766140618        2.6314529032
 H        -3.7649405310       -2.8482857445        0.4614288323
 H        -2.7387243105       -2.8939565950       -1.0022722123
 H        -2.8918636205       -4.1932139502        0.2336195939
 H         1.9632447803       -3.5098577697       -0.7874623456
 H         1.6419964512       -5.0893197497       -0.0525609226
 H         4.3024841700       -2.9586074758       -4.1446176627
 H         2.9737540139       -2.3660424711       -3.1822451703
 H         3.1538698865       -6.0400952950       -0.5184076756
 H         4.6861237549       -6.4564459010       -1.3590539005
 H         3.1345606594       -7.1778841862       -1.8131398243
 H         4.3764399337       -5.1991341785       -4.6972276789
 H         4.0678779033       -6.7030466649       -3.9336874050
 H         2.8106807113       -5.8588991387       -4.7078890032
 H         4.5771339710       -0.4847837547       -3.2350465930
 H         5.7978818253       -1.6233627771       -2.3724496570
 H         5.6727254135        0.5278079968        2.3529858833
 H         5.0349842007        2.1929631917        1.9764529987
 H         6.4382884631       -1.2055313459        1.4543743351
 H         6.4275205002       -1.9946954511       -0.2006570233
 H         5.2226923699       -2.3543512604        0.8347678223
 H         6.3352950890        0.2489707837       -1.6930949597
 H         5.4830969649        1.6859821363       -0.9637242976
 H         6.8490206080        0.9309381008       -0.1081783063
 H         4.1876897467        1.4886144243        4.3180578750
 H         3.1332450445        2.0393449389        2.9836911922
 H         0.1472816351        1.4894115188        5.6457510161
 H         0.8212631059        2.6576223027        4.6709255389
 H         0.3332301223       -1.3136742005        5.3400340257
 H         1.8757598588       -2.1976377322        5.0129365328
 H         0.8192390794       -1.9417137516        3.7933683457
 H         3.2406267263       -0.1199573436        5.8514283376
 H         2.3659023311        1.4198170136        5.6875574621
 H         1.6260840604        0.0269763951        6.5628214925
 H        -1.7894232351        2.8578047214        4.8941877150
 H        -1.8966447983        1.4206734339        3.9232495942
 H         0.7204710362        4.3490397417        0.2214057355
 H         0.7060262541        6.0381888277        0.6224751937
 H        -2.5609536709        5.4409944553        2.5711223984
 H        -1.6728544363        5.3696412872        1.1745965588
 H        -1.3376622446        6.7434872483        2.3168284919
 H         0.2703959101        4.7258241677        5.0614559545
 H        -0.0521919129        6.3443044495        4.4833902488
 H        -1.5112382948        5.2713035889        4.8425533485
 H         2.9930921738        6.0702236325        1.4091522233
 H         3.1747933942        4.4194514400        0.7824665792
 H         6.1188432116        7.1084283669       -0.4266698518
 H         7.3472427358        5.8357546998       -0.1327043840
 H         6.8472671230        6.3070592561       -1.7571192833
 H         3.8665647795        3.9201719804       -3.1595782536
 H         2.3924866465        4.2000659752       -2.4924245708
 H         3.5475316971        3.1509500435       -1.5507940894
 H         3.5890306411        6.7396501296       -3.0891176326
 H         4.7546024546        7.3925302932       -2.1136829576
 H         5.0933824846        6.2383375110       -3.2995375341
 Na        1.4772392455       -0.8309302482        0.8271332054
