155

 C       -11.8047602987       -2.0252791473       -2.5250770098
 C       -10.3062170899       -2.3072044032       -2.7490871008
 C        -9.5544336009       -3.5912964597       -2.3944433831
 C        -8.5388899419       -3.2370825438       -1.2132516860
 C        -7.1307914341       -2.7065491346       -1.4579188013
 C       -10.5596252817       -4.6478184919       -1.8433424891
 C        -8.8122520575       -4.0304979901       -3.6598990409
 O        -9.6700138743       -1.3869829737       -3.2727375206
 O        -8.8790539844       -3.4858874887       -0.0838167841
 C        -7.2072885062       -1.1105372320       -1.3495315539
 C        -5.9459886109       -0.4901590932       -1.8710023887
 C        -5.6560856986        1.0606300653       -1.8223448871
 C        -4.9686479390        1.2105242843       -0.4922428476
 C        -3.4632204190        1.1025109306       -0.3284879925
 O        -5.1989030166       -1.1355848194       -2.5338438540
 O        -5.6411429727        1.2971445033        0.5364774987
 C        -4.8140752268        1.5236181297       -3.0706747487
 C        -7.0141476834        1.9372270790       -1.9718217917
 C        -3.0259062899        0.0108882477        0.6066052960
 C        -1.7383888417       -0.7330773081        0.2894768415
 C        -1.7846299699       -2.3234946501       -0.0171236729
 C        -0.3703074512       -3.0445020852        0.0307553686
 C         0.0733108907       -4.1149926967       -0.9699234413
 C        -2.6253206439       -3.1115273932        0.9683471272
 C        -2.4011305386       -2.3771547152       -1.4390146942
 O        -0.6581375877       -0.1823042755        0.1068056064
 O         0.4475132916       -2.6691296495        0.8428355906
 C         1.5456437436       -4.5122202156       -1.0130534049
 C         1.8660754972       -4.9228083732       -2.4755928667
 C         3.4679301146       -5.3534575471       -2.6661243007
 C         4.3895855812       -4.0724215578       -2.4342972268
 C         3.8917600143       -2.7639812598       -3.0088559090
 O         1.0778044061       -4.8812754361       -3.3859927202
 O         5.4562553089       -4.1559725603       -1.8574002561
 C         3.7420234201       -6.5228597471       -1.6012083851
 C         3.6196043050       -5.7578153795       -4.1966200887
 C         4.7207307452       -1.5566380799       -2.6316538591
 C         4.2171297536       -1.0326114301       -1.3144793674
 C         5.1033556682       -0.0906410020       -0.4460442577
 C         4.2515220578        0.7510670177        0.5212786986
 C         4.9682059968        1.4450148332        1.6884189520
 C         5.9029252926       -1.1720531815        0.3531383046
 C         6.0268368957        0.6769427101       -1.3437882526
 O         3.0614267712       -1.4200067518       -1.0174151282
 O         3.0629650702        0.9399260363        0.2905502510
 C         3.9213689223        1.3948157679        2.8726380244
 C         3.2970379867       -0.0297300934        3.0200283649
 C         2.2427564574       -0.1799745263        4.2440149188
 C         1.0362141028        0.7554816927        3.6334055158
 C         0.4461125348        1.7450002606        4.6317613446
 O         3.6694509570       -0.9282323577        2.2930865828
 O         0.6776547040        0.6274234747        2.4529093245
 C         1.7858003705       -1.6239115267        4.2832648715
 C         2.8653656395        0.4228917874        5.6310365907
 C        -0.9686425374        2.2471425650        4.1548143017
 C        -1.1620052271        3.2313247887        2.9437717454
 C        -0.5315066030        4.7095251317        2.9405053970
 C         0.9676280898        4.4728935697        2.5061720869
 C         1.6110868347        5.3750886914        1.4261476669
 C        -1.3356981966        5.6739593031        2.0533955350
 C        -0.4368118610        5.2662683755        4.4346401587
 O        -1.8378963913        2.8313900965        1.9747397902
 O         1.5910261512        3.6969399744        3.1719086413
 C         2.5946626586        4.5694013925        0.6009779529
 C         2.8844275098        5.5204100244       -0.6426593269
 C         3.9844077025        5.0538951442       -1.6679348765
 C         5.3610288110        5.1662792211       -0.7817259735
 C         6.5794312897        5.9012772542       -1.2733426919
 O         2.1793279538        6.4743298940       -0.9135751696
 O         5.4265200631        4.6078219615        0.3160401492
 C         3.8286848031        3.5609121059       -1.9114633863
 C         4.1591151928        5.8299645445       -2.9480611481
 H       -11.9947718935       -1.9292794122       -1.4963068545
 H       -12.1187091334       -1.0714009968       -3.0384458125
 H       -12.5825981250       -2.7565228528       -2.7839686282
 H        -6.4907648390       -3.0080519450       -0.6716744858
 H        -6.6852910570       -3.0130034910       -2.4033828669
 H       -11.3002267282       -4.2420170036       -1.2788706902
 H       -10.0952297572       -5.3308407217       -1.2352714967
 H       -10.9350495884       -5.1452633157       -2.7614067634
 H        -8.4687382041       -3.1698043431       -4.2300411623
 H        -7.9452229213       -4.7186131461       -3.5630271067
 H        -9.4824507102       -4.6386281273       -4.1899564682
 H        -7.9168363438       -0.7514364021       -2.0438123010
 H        -7.4395680012       -0.5846682121       -0.4729818842
 H        -2.9672682946        1.0360682397       -1.3248579190
 H        -3.2495621147        2.1183727693        0.0361959598
 H        -3.8273764464        1.1474548265       -2.9410041885
 H        -4.8470980155        2.5925797480       -3.2344480239
 H        -5.2198499022        1.0248262393       -3.9200447163
 H        -7.3334267200        1.7452993787       -3.0133860765
 H        -7.8064777472        1.6780110226       -1.2619307440
 H        -6.8617524914        2.9839138665       -2.0161233566
 H        -3.8818262749       -0.6823609120        0.7683558235
 H        -2.8700305641        0.3979572272        1.6211893341
 H        -0.6404311693       -4.9749547230       -0.8712519600
 H        -0.2163010055       -3.7908272394       -1.9283719119
 H        -2.0599613065       -3.1877713605        1.8838303507
 H        -2.8596878787       -4.1304164954        0.5562947671
 H        -3.5283164305       -2.6376925259        1.1409818454
 H        -3.3987775677       -1.9673274622       -1.4952992862
 H        -1.9513786633       -1.9915633591       -2.3348843993
 H        -2.4355643266       -3.4781341730       -1.6743123781
 H         2.2131419043       -3.7362813430       -0.5545344091
 H         1.6910390568       -5.3530703057       -0.2421257970
 H         3.9585552606       -3.0116677120       -4.0733554426
 H         2.8282089895       -2.5357141960       -2.7891399680
 H         3.0342749936       -6.4907573293       -0.7740878800
 H         4.7311032048       -6.4517301039       -1.0764863003
 H         3.5825280784       -7.4247720648       -2.2321581836
 H         4.4673146437       -5.4712549423       -4.7928288545
 H         3.6495224063       -6.8232188350       -4.1894465962
 H         2.7220767185       -5.5034525948       -4.8022926614
 H         4.6858442907       -0.7505831347       -3.3787753947
 H         5.8070428273       -1.6396203996       -2.5767297145
 H         5.8526542759        0.8241292074        1.9103613014
 H         5.3150299383        2.4375929132        1.4482738902
 H         6.5190782184       -0.8431351379        1.1996040725
 H         6.6903886120       -1.4521486281       -0.2868828739
 H         5.2880602106       -2.0021592173        0.7232007693
 H         6.5152900496       -0.1196827319       -1.8540650713
 H         5.4700093861        1.2657550138       -2.1069857245
 H         6.7829281445        1.2829225267       -0.8381536890
 H         4.4259225101        1.4944041162        3.8360977257
 H         3.2750397191        2.3139033403        2.8258435940
 H         0.3442833248        1.3506209616        5.5403016208
 H         1.2009643281        2.5401188116        4.5915983347
 H         1.5204890575       -2.0952562446        5.2743298892
 H         2.6124630437       -2.2698704533        3.9376858614
 H         0.9149237970       -1.6945883522        3.5455971823
 H         3.6077373581       -0.2447443862        5.9043999718
 H         3.4015660137        1.3485283794        5.4026195729
 H         2.1830970663        0.5625514785        6.3878423206
 H        -1.4604600033        2.7513922776        5.0138578628
 H        -1.4031832906        1.3048609355        3.8300097404
 H         0.7798173244        5.7902391316        0.9056038228
 H         2.0068635443        6.2325733799        2.0142936723
 H        -2.2743823723        5.8895715998        2.5003482493
 H        -1.4611774379        5.3971007308        1.0222454592
 H        -0.9062423645        6.6636322444        1.9623541452
 H         0.2763436519        4.7030543920        4.9712595738
 H        -0.2503919480        6.2934879398        4.4763711244
 H        -1.3295977682        5.1218189291        5.0198450029
 H         3.4608027692        4.2958932728        1.1898992291
 H         2.0759292963        3.7318928601        0.2462518504
 H         6.4749024675        6.9621514543       -1.0501217386
 H         7.5473925832        5.6645352568       -0.9027612626
 H         6.6605334578        5.8671987324       -2.3443895477
 H         4.7753978678        3.3281350082       -2.4539893409
 H         2.9548660577        3.1666650209       -2.4303229203
 H         3.8657702003        2.9742031289       -0.9477037068
 H         3.1637021103        5.8430163453       -3.5502013333
 H         4.3079794269        6.9034182717       -2.7854692528
 H         4.9398761309        5.5876481603       -3.7352815756
 Na        1.6767099073       -0.8419494101        0.8154403609
