155

 C       -12.0952950365       -1.4229594509       -1.7168517933
 C       -10.6357285916       -1.9284986643       -2.1303939242
 C       -10.1241237749       -3.2921334905       -1.5224315662
 C        -8.9994328184       -2.8298128350       -0.4913382336
 C        -7.7554256059       -2.2983256044       -1.1374695095
 C       -11.2800539732       -3.9826360031       -0.8292875632
 C        -9.5466680531       -4.1126705596       -2.7144789531
 O        -9.8487208634       -1.2005595644       -2.7584431120
 O        -9.1863634314       -2.8111455610        0.6980001093
 C        -7.5254862947       -0.8762893814       -0.7603822960
 C        -6.2584369653       -0.3626759354       -1.3493238981
 C        -6.0293476780        1.2724936587       -1.3102145135
 C        -4.9735807673        1.4329769395       -0.1432836318
 C        -3.5517362098        0.9343474625       -0.3638370889
 O        -5.3812049411       -1.1042593395       -1.6353247471
 O        -5.3942518298        1.8357398398        0.9529564133
 C        -5.4210077532        1.5624589652       -2.7610299741
 C        -7.3655196740        2.1166361468       -1.0752557477
 C        -3.2346662762       -0.2975428953        0.4072321489
 C        -1.7611483177       -0.7565436139        0.0093761624
 C        -1.6755592847       -2.1443469348       -0.9143540126
 C        -0.1450637156       -2.7994265361       -0.8802856320
 C         0.4530726202       -3.6771439937       -2.0149471719
 C        -2.4496747633       -3.2822629133       -0.1064301062
 C        -2.3004723733       -1.8517459546       -2.3155622327
 O        -0.7843010686       -0.1358542049        0.2889436695
 O         0.6848517440       -2.5499023551        0.0128734867
 C         1.4209975674       -4.8657004578       -1.5823008214
 C         2.1289122032       -5.4149032215       -2.9003067425
 C         3.7021422156       -5.6526604259       -2.8275599230
 C         4.3272808902       -4.2588466358       -2.4340806045
 C         3.9431565379       -3.0347925498       -3.4199872606
 O         1.5493585284       -5.5628198842       -3.9507327290
 O         4.9798937847       -4.1193093705       -1.4086322270
 C         3.8215821117       -6.7920107303       -1.8333321090
 C         4.2394407260       -6.1304094519       -4.2088161607
 C         4.6609143052       -1.8149192495       -3.0539262156
 C         4.1056422915       -1.0915229249       -1.7888082669
 C         5.2169561240       -0.4883108571       -0.7339155441
 C         4.5059417498        0.6361961820        0.1285953392
 C         5.2913257221        1.2819557225        1.2184873996
 C         5.6695013776       -1.6631252038        0.2228382787
 C         6.4667354992        0.1242861119       -1.5127522394
 O         2.8852357178       -1.1012793298       -1.6656065211
 O         3.2873280858        0.9079863004        0.1179430875
 C         4.5263983701        1.5469259340        2.5121533120
 C         3.7767327583        0.4004210221        3.1139137390
 C         2.8902473921        0.6671761698        4.2853962413
 C         1.2712906337        0.7279836810        3.7058824715
 C         0.1997950292        1.2635417165        4.7518500782
 O         3.6017947450       -0.6278864120        2.4304400529
 O         0.9043896039        0.4468483170        2.6313872139
 C         2.9197631469       -0.6209203578        5.1677547437
 C         3.2293377331        1.7785818199        5.3017133108
 C        -1.1114903694        1.8869266368        4.2333242605
 C        -0.9661427262        2.8944838099        3.0893699126
 C        -0.2150774232        4.3273483625        3.3317813247
 C         1.0736987386        4.0896007357        2.4302446867
 C         1.1686794708        4.5486737777        0.9606573643
 C        -1.2747922369        5.3207241533        2.9143103953
 C         0.2136799320        4.6042540259        4.8076262788
 O        -1.2868198964        2.5902323321        1.9387612116
 O         1.9637914760        3.4892089126        2.9939984696
 C         2.4194428304        4.1289489891        0.2444175058
 C         2.9333317615        5.2896566244       -0.7099095640
 C         3.8145583669        4.9275517693       -1.8938569058
 C         5.2535782680        4.7686857149       -1.2404018844
 C         5.8274340043        6.0813824370       -0.6885218118
 O         2.7945581318        6.4987481753       -0.4917776807
 O         5.7412287830        3.6314897529       -1.1463112578
 C         3.2840419723        3.5803641079       -2.5889592176
 C         3.7489828494        6.1055722564       -2.9872079215
 H       -12.2902947219       -1.6760560277       -0.7185035088
 H       -12.3459483893       -0.3667701295       -1.6694208447
 H       -12.8062352708       -1.9705266799       -2.3831132440
 H        -6.9278059553       -2.8163359884       -0.7216441151
 H        -7.7902343384       -2.4182099604       -2.2238456200
 H       -11.5092644629       -3.3719049024       -0.0662904429
 H       -10.9067865400       -4.8606433964       -0.5188618592
 H       -12.0885467821       -4.1819578251       -1.5463228475
 H        -9.1607630274       -3.4562041614       -3.5392094053
 H        -8.7061570070       -4.6665782601       -2.4071103379
 H       -10.3189010358       -4.8058234780       -3.1275786236
 H        -8.2464857237       -0.1500712062       -1.0314166808
 H        -7.5872924549       -0.8788538551        0.2687318458
 H        -3.3955265933        0.7033985272       -1.4512137837
 H        -2.8225940599        1.7667574220       -0.2760023117
 H        -4.5219176403        1.0663795330       -2.9029892378
 H        -5.3475604012        2.6121476748       -2.8136734537
 H        -6.0721307065        1.0855522774       -3.4673427910
 H        -8.2765665191        1.5581996298       -1.3708104866
 H        -7.5040376006        2.3446869472       -0.0311512821
 H        -7.2404578380        3.1196001608       -1.5477972885
 H        -3.8615837645       -1.1409176118        0.2971030085
 H        -3.2280183694       -0.1587189359        1.5353179543
 H        -0.2720511521       -4.3298559276       -2.6961052472
 H         1.0624942784       -3.0419475212       -2.7215544542
 H        -2.0271512120       -3.3852341826        0.8515040511
 H        -2.2767435928       -4.2660943665       -0.6105497193
 H        -3.4850495374       -3.0213375383       -0.0304329754
 H        -3.4092919926       -1.7947862856       -2.0853492236
 H        -2.0299976489       -0.9170049775       -2.7341649468
 H        -2.2109798060       -2.6754541570       -3.1105527386
 H         2.1505318736       -4.5697363110       -0.8129952202
 H         0.7799455428       -5.7137068951       -1.1999454575
 H         4.1823415786       -3.3492427750       -4.4464470044
 H         2.8703119683       -2.8822458052       -3.3771997835
 H         3.3969239188       -6.4874247992       -0.8166668973
 H         4.9249480477       -7.0546710436       -1.6803126527
 H         3.1854876292       -7.6691946921       -2.1726370701
 H         3.4232699413       -6.4808957601       -4.7600952349
 H         4.5866515914       -5.3188036730       -4.7555055994
 H         4.9654523113       -6.8735082542       -3.9081741705
 H         4.5341338759       -1.0643789505       -3.8827505077
 H         5.7811391194       -2.0316220078       -2.9873848510
 H         6.2901589840        0.9301427046        1.3258367560
 H         5.3725490863        2.2775101048        0.6998484369
 H         6.3700800647       -1.4319049759        0.9904690493
 H         5.8979295644       -2.4559055965       -0.4061318982
 H         4.7777301336       -2.0890434047        0.6409261646
 H         6.4601968915       -0.0444356288       -2.6237917100
 H         6.5652705714        1.1788615153       -1.4462245609
 H         7.3954911234       -0.3134071858       -1.1899715296
 H         5.2549999970        1.9557216979        3.3095485807
 H         3.7024708514        2.2551457833        2.5654241845
 H        -0.0675950937        0.4311818016        5.4321126311
 H         0.7777476811        2.0208542563        5.4359705883
 H         2.0227918818       -0.6719154929        5.8241152826
 H         3.8648049890       -0.7726238407        5.7095995799
 H         2.9418704162       -1.5116158575        4.5019310367
 H         4.1370172426        1.5091178670        5.7327447008
 H         3.3015277380        2.7726795250        4.8457177714
 H         2.5577436808        1.8514270473        6.0867134107
 H        -1.5948113360        2.3376583317        5.1242146076
 H        -1.8656507504        1.1315515836        4.1296619838
 H         0.2975982613        4.0887821214        0.4464347649
 H         0.9540801116        5.5986219908        1.0117981288
 H        -2.0429401459        5.4298067125        3.7094967727
 H        -1.8549834659        5.0364021171        2.0609426998
 H        -0.9084799781        6.3740689957        2.7623955800
 H         1.0153947756        3.9297580813        5.1575228542
 H         0.7170548658        5.5652242120        4.9255520418
 H        -0.5858391548        4.5357443735        5.5660732497
 H         3.2094455244        4.0263295745        0.9797356280
 H         2.4197076433        3.2459530495       -0.3074072604
 H         5.0722963833        6.5430724986       -0.0224887633
 H         6.7829836507        6.0028032462       -0.2209109299
 H         5.8995258896        6.7716807742       -1.5455697143
 H         3.8575936389        3.4086521860       -3.5455267717
 H         2.2290007558        3.7738213921       -2.8364568886
 H         3.5048286895        2.5945305813       -2.1222824575
 H         2.6487256703        6.2046581872       -3.2900828452
 H         4.0119704363        7.1198003922       -2.7261681480
 H         4.4741422409        5.8259503849       -3.7801818318
 Na        1.4938598713       -0.5058968996        0.7685297980
