155

 C       -12.2411478909       -1.1913464190       -1.3198748468
 C       -10.9896691873       -1.8808657346       -1.8882916983
 C       -10.4315670567       -3.2144944863       -1.2065964920
 C        -9.2301313947       -2.7802735150       -0.2405289726
 C        -7.9578170392       -2.2166428046       -0.8964721967
 C       -11.6914005675       -3.8797020313       -0.3906919097
 C        -9.9279537705       -4.1206264202       -2.3097295284
 O       -10.4293212652       -1.4596628490       -2.8828506723
 O        -9.4926510760       -2.7018471829        0.9237123028
 C        -7.6721671727       -0.7131824244       -0.5898710830
 C        -6.2817939790       -0.1863134979       -1.1558192081
 C        -5.9421302831        1.3352754988       -1.0094219232
 C        -4.6706037199        1.4337036183       -0.0898068364
 C        -3.3395571098        0.9240846930       -0.5811004002
 O        -5.6128273283       -0.8480014492       -1.8681657082
 O        -4.7411116085        1.8673215599        1.0574703639
 C        -5.4966408110        1.8653461333       -2.3971256269
 C        -7.0396451119        2.1623915002       -0.3710417511
 C        -2.7842614721       -0.2452136609        0.1970511846
 C        -1.4361199075       -0.7896983224       -0.2348582572
 C        -1.3762760017       -2.1484323266       -1.1187638512
 C         0.0797249874       -2.8150897086       -1.1101843806
 C         0.2637981523       -3.8069777502       -2.3084692072
 C        -2.2891262893       -3.2112849106       -0.3595687335
 C        -2.0229980108       -1.7350748293       -2.4789123128
 O        -0.4269391496       -0.2338214895        0.0907904041
 O         0.7442715613       -2.9177940563       -0.0976520804
 C         1.3680333093       -4.8286956359       -1.9505877424
 C         2.0716316158       -5.4007338068       -3.1678355311
 C         3.6075630812       -5.6285044789       -2.9470155872
 C         4.2784037615       -4.2522591243       -2.5598271969
 C         4.0732788507       -3.0600522357       -3.5050305730
 O         1.3699793150       -5.8251168046       -4.0315079855
 O         4.8453111815       -4.1121126451       -1.4702165754
 C         3.5939926188       -6.6152211003       -1.6975675391
 C         4.1545663946       -6.3692699893       -4.1933202216
 C         4.8538125068       -1.7932343015       -3.0166011233
 C         4.1173164196       -1.1027358864       -1.7899129960
 C         5.0558771926       -0.4592652791       -0.6916649150
 C         4.3766358433        0.7103168918        0.0992021726
 C         5.2959687019        1.3263947236        1.1859412814
 C         5.6576472637       -1.6957418997        0.1715370744
 C         6.1944880491        0.2450957041       -1.4665935120
 O         2.9570560737       -1.3468813546       -1.5437474867
 O         3.2438505494        1.1551435379       -0.0937183768
 C         4.5049114037        1.7081884489        2.4301166262
 C         3.7263338840        0.5433340790        2.9720736622
 C         2.8891546206        0.7109158078        4.2876027687
 C         1.4715295383        0.7830125657        3.7589534293
 C         0.4368947413        1.3744984596        4.7341669215
 O         3.7589075304       -0.5729635352        2.4223464815
 O         1.1866639070        0.4864562428        2.6485509740
 C         3.1157858587       -0.5840364045        5.1265768861
 C         3.3020551254        1.8552566859        5.2426247678
 C        -0.9293550185        1.6906814720        4.2647962513
 C        -0.9857028922        2.7673179308        3.2028474836
 C        -0.1379331872        4.1537306147        3.2425751849
 C         1.1676393983        4.1185354530        2.4122006232
 C         0.9739561587        4.4243348615        0.9652613450
 C        -1.1511475964        5.1967118287        2.8198560616
 C         0.2281461962        4.5250496730        4.7659087595
 O        -1.7086111595        2.5794890061        2.2690464461
 O         2.2387561007        4.0067576367        2.8928367214
 C         2.0514649220        3.9253531617        0.0769868054
 C         2.7960375788        5.1640652830       -0.6488335522
 C         3.6767089145        4.8969789399       -1.9487427327
 C         5.2182818571        4.5843725268       -1.4584069821
 C         6.0593739338        5.6744641719       -0.7075470400
 O         2.5042608433        6.2667278996       -0.3234301817
 O         5.6910915496        3.4685852235       -1.6144272942
 C         3.1036760060        3.7169577894       -2.7446952895
 C         3.7721725985        6.2491972556       -2.6868171148
 H       -11.9828607611       -0.1639649786       -1.2348092664
 H       -13.1240081917       -1.2536910414       -2.0428394366
 H       -12.7132347608       -1.5364533033       -0.3582450347
 H        -7.0890610666       -2.7150239063       -0.4583004302
 H        -7.8247646247       -2.2983192789       -2.0225358719
 H       -11.9491979065       -3.2893435453        0.4255002996
 H       -11.4455203220       -4.8179851797       -0.0469832363
 H       -12.4265212335       -3.9446580595       -1.1727142487
 H        -9.0810780765       -3.6563686239       -2.7864856259
 H        -9.6121407172       -5.1155057846       -2.0319556257
 H       -10.7464269469       -4.2943987061       -2.9431727136
 H        -8.3230793136       -0.1512829679       -1.3121329295
 H        -7.9179879754       -0.2690322108        0.3483305179
 H        -3.5760445047        0.6925855363       -1.6355706408
 H        -2.6795769011        1.7818864401       -0.5682033205
 H        -5.2131939376        0.9853292676       -3.0120161707
 H        -4.7213155255        2.6712437784       -2.3020029727
 H        -6.4098675591        2.2589102633       -2.8616406357
 H        -6.9628646028        2.0002206579        0.7464059837
 H        -6.9951734691        3.2442285357       -0.5192466943
 H        -8.0331048327        1.7560843781       -0.6431813098
 H        -3.3979428036       -1.1030200761        0.1998337527
 H        -2.6549074929        0.1962768339        1.1964026179
 H        -0.7327115322       -4.3590779081       -2.4831066715
 H         0.4106486557       -3.3033181704       -3.2610146776
 H        -1.8919337058       -3.2766614159        0.6737585528
 H        -2.2980171249       -4.2744609948       -0.8608525157
 H        -3.2937114172       -2.8730092264       -0.3951330469
 H        -2.5355145360       -0.8430634749       -2.2513076726
 H        -1.3141710322       -1.3411608035       -3.1457463000
 H        -2.5300974009       -2.5840657658       -2.9939225527
 H         2.0317900984       -4.2896527739       -1.3428329793
 H         0.9185395007       -5.5966897233       -1.3345181402
 H         4.2538871747       -3.3845303434       -4.5531296511
 H         3.0038486420       -2.8645492395       -3.4338012838
 H         3.1105196472       -6.1755790052       -0.8389787446
 H         4.5887151728       -6.7495491800       -1.2372002475
 H         3.2425085988       -7.6270366103       -1.9621494457
 H         4.6427001240       -7.2788511977       -3.8728833646
 H         3.2582342757       -6.6146008336       -4.6577541636
 H         4.8617400459       -5.7373676559       -4.7336634485
 H         4.8109382308       -1.1428037388       -3.8789982370
 H         5.8919317871       -2.0128712044       -2.6935027762
 H         6.0781394159        0.6367868500        1.2199427968
 H         5.7060585563        2.3037890958        0.8869227078
 H         6.4650445421       -1.3042028887        0.7994216840
 H         6.0231202659       -2.4309873127       -0.4890660142
 H         4.9100451984       -2.1743123279        0.8269975422
 H         5.9017608049        0.7398551339       -2.4050171887
 H         6.5592878070        1.0657530530       -0.8512542459
 H         7.0761844898       -0.3464151553       -1.7176107816
 H         5.2167693160        1.7812558898        3.3280126691
 H         3.9633641932        2.6155350215        2.3645435507
 H         0.4307265844        0.4516586017        5.4699443638
 H         0.8564198795        2.1756866461        5.3169754754
 H         2.7094383783       -0.4856706951        6.1019769492
 H         4.1215492416       -0.7750656882        5.2824208175
 H         2.6391929721       -1.4519868233        4.6833838865
 H         4.3831079346        1.7377000306        5.4643490897
 H         3.1109836259        2.9006364580        4.9861476445
 H         2.7757572625        1.6556555609        6.0872611215
 H        -1.5849391199        1.8851866821        5.1717468435
 H        -1.3322480025        0.7694459785        3.8219161576
 H        -0.0336478505        4.0003446132        0.6281667314
 H         0.8633700606        5.5333524921        0.9470837382
 H        -1.8966135903        5.2244064595        3.6089363885
 H        -1.5774562315        4.8637573462        1.8770747836
 H        -0.8234648341        6.2454460705        2.6487803821
 H         1.1812427609        4.0148705947        5.0259579030
 H         0.2202538872        5.6302022221        4.9427981708
 H        -0.4866790567        4.0262322269        5.5299075135
 H         2.8173244157        3.3027350144        0.5645298299
 H         1.6554636044        3.3582756194       -0.6850215511
 H         5.7017258593        5.9780855399        0.2939361493
 H         7.0653815319        5.2269117729       -0.6759610702
 H         6.1076455298        6.5837101223       -1.3301782034
 H         3.7970932069        3.4696343022       -3.5564469226
 H         2.1431522904        3.8522411903       -3.1546637318
 H         3.1396771048        2.8780173334       -2.0552607958
 H         2.7425705720        6.4530722127       -3.1890104843
 H         3.8219000305        7.0092387761       -1.9151886467
 H         4.7390031925        6.3315506784       -3.2994179577
 Na        1.9283930879       -0.7652498104        0.5576177486
