155

 C       -12.7627474276       -0.8149386674       -0.5358389718
 C       -11.8330568188       -1.7894208307       -1.3104212289
 C       -10.9578822539       -2.7978184106       -0.4577456885
 C        -9.7984750825       -1.8852813475        0.2237762831
 C        -8.6304347068       -1.2507962204       -0.6849063217
 C       -11.8675552553       -3.3668262976        0.6526196873
 C       -10.2842896521       -3.9205630379       -1.3021732722
 O       -11.8201152487       -1.8429930814       -2.5139327754
 O        -9.7522047669       -1.7324372549        1.3985364316
 C        -7.9878722171        0.0394349870       -0.1404799686
 C        -6.5044165678        0.2140629998       -0.5490219917
 C        -5.6585963842        1.4578655893       -0.2574328404
 C        -4.2448611688        1.0201158120        0.3929723916
 C        -3.1253268038        0.5397336665       -0.5453690888
 O        -5.9442319054       -0.5812342698       -1.2094085234
 O        -4.0992811398        1.0118889988        1.6053551288
 C        -5.5394153555        2.3295857849       -1.5015895286
 C        -6.2924820493        2.3750049423        0.8372732756
 C        -1.9598241744       -0.0374007015        0.2496422998
 C        -0.9428180835       -0.6043799348       -0.7968430995
 C        -1.2335690182       -2.1060164869       -1.4371655829
 C        -0.1160146020       -3.0062705143       -0.9865859529
 C        -0.0698693697       -4.4419975011       -1.5997391408
 C        -2.6349532300       -2.7008719508       -1.2569236377
 C        -1.0376426723       -1.7136073457       -2.9309108174
 O         0.1004974974       -0.0660104602       -0.9713522856
 O         0.8034214331       -2.6733654908       -0.2361895514
 C         1.3616940443       -4.9749078203       -1.5894266408
 C         1.9811299620       -5.2232494982       -2.9248302069
 C         3.4235855550       -5.7945134071       -2.9493278181
 C         4.2962883845       -4.4597366327       -2.7686629994
 C         4.0109814281       -3.1120191633       -3.5800087386
 O         1.3616687525       -5.1300841765       -3.9282638693
 O         5.2929733654       -4.4409926217       -2.0698304238
 C         3.8965929182       -6.8238989734       -1.9362338462
 C         3.6539618784       -6.2141994288       -4.4683933965
 C         5.0075065675       -1.9868225661       -3.1963287332
 C         4.6509441091       -1.3981286005       -1.8070538970
 C         5.5931094093       -0.4292057384       -1.1200444030
 C         4.6417707676        0.5150559476       -0.1406364029
 C         5.5126073460        1.3265731876        0.8957870810
 C         6.3686096415       -1.3586625661       -0.1823923391
 C         6.3782897005        0.4661751136       -2.0379980747
 O         3.6943644131       -1.8995611883       -1.1601216623
 O         3.5111451672        0.8635528687       -0.4426594588
 C         4.9155666597        1.3493469394        2.3202618135
 C         4.0303581027        0.0893343269        2.6648971919
 C         3.1557425869        0.1686869651        4.0279596992
 C         1.6843481091        0.7135824649        3.5856200916
 C         0.8501700992        1.2632758739        4.7539075043
 O         3.9410567835       -0.8588824002        1.8911917747
 O         1.1699810182        0.5170519001        2.5001267250
 C         3.0524736092       -1.3616105600        4.5531793554
 C         3.8839014716        0.9050275702        5.0916845030
 C        -0.5663813753        1.7529009355        4.3763056339
 C        -0.9444588057        2.6755193062        3.1141569547
 C        -0.4094151325        4.1769383679        3.1469787853
 C         0.7853118703        4.0658899560        2.0716723711
 C         0.4973275780        4.4117755567        0.6085669292
 C        -1.5682089435        5.0966642919        2.7888374864
 C         0.1678844929        4.5134611563        4.5769804098
 O        -1.7852074849        2.2978150724        2.3513947123
 O         1.8046052822        3.5887019609        2.5086320763
 C         1.6531190579        4.0048190923       -0.4111171342
 C         2.4994728552        5.2037594151       -0.9425497027
 C         3.4970562832        5.0190247214       -2.2034666608
 C         4.7795094014        4.4411656232       -1.6662093498
 C         5.6744177174        5.4049168519       -0.8591983854
 O         2.4880986082        6.2331856177       -0.3653492619
 O         5.0034011029        3.2528505807       -1.7528768176
 C         2.9882984635        4.1692521421       -3.3640137174
 C         3.7170281629        6.5192578933       -2.8237483979
 H       -12.3574842739        0.1101142898       -0.1950333196
 H       -13.5302437952       -0.4024983475       -1.2605766966
 H       -13.2768041647       -1.3604093567        0.2974771890
 H        -7.7829119005       -1.8652952435       -0.8913777900
 H        -9.0634748380       -1.1863818175       -1.6927859817
 H       -12.0581300832       -2.7963154885        1.5261139062
 H       -11.4809153236       -4.3022610203        0.9005116796
 H       -12.7777519761       -3.5995326516        0.2252017149
 H        -9.8290789040       -3.4680105547       -2.1821011010
 H        -9.5892034383       -4.4632697386       -0.7498705030
 H       -11.0481921116       -4.5691444331       -1.7808553799
 H        -8.6103268344        0.8807326795       -0.4598201729
 H        -8.0077054424       -0.0375372211        0.9862992461
 H        -3.5682289000       -0.2277783619       -1.1190156720
 H        -2.6825576549        1.3739634080       -1.1128402310
 H        -5.1398553042        1.8201073667       -2.3847275008
 H        -4.9174845059        3.2413071766       -1.3224729095
 H        -6.5636966545        2.6707635364       -1.9089649188
 H        -7.1765996775        1.9031793475        1.2368866086
 H        -5.5991716059        2.6337321506        1.5963941600
 H        -6.7376480418        3.3251593512        0.4886121447
 H        -2.2757037865       -0.7894136991        0.9180536418
 H        -1.3860256589        0.7224706860        0.8482029240
 H        -0.7314873279       -5.1928386685       -0.9492008698
 H        -0.5108406330       -4.5670073651       -2.6076039055
 H        -2.7493395148       -2.8194527985       -0.1782156426
 H        -2.7055563985       -3.8019613790       -1.5231155685
 H        -3.5067950199       -2.1275786023       -1.5463121384
 H        -2.0126207029       -1.2789148473       -3.2184994081
 H        -0.2231152380       -1.0682181168       -2.9215940685
 H        -0.8994707899       -2.5845180881       -3.5925012944
 H         1.9530823102       -4.4411812293       -0.8815986758
 H         1.2850884275       -5.9650163856       -1.2350458808
 H         4.1287355373       -3.4278177649       -4.6148428251
 H         2.9667262540       -2.7858889609       -3.4917940904
 H         4.2233432219       -6.4944964597       -0.9632187463
 H         4.6960188253       -7.4356833962       -2.2722830210
 H         3.0696837899       -7.4208822566       -1.6670349872
 H         3.1690916619       -7.1830594406       -4.5425552066
 H         3.0937541346       -5.6110154309       -5.1196701316
 H         4.7395389927       -6.3035730880       -4.7332592949
 H         4.9311591839       -1.2067369210       -4.0390173324
 H         6.0597381106       -2.3552922231       -3.1083596232
 H         6.4916533835        0.8424735083        1.0212864749
 H         5.6351900875        2.2930135416        0.4500817911
 H         7.2265560998       -0.7319170857        0.1074856687
 H         6.7916242442       -2.2582269469       -0.6827888781
 H         5.8222541195       -1.6923490198        0.7511160146
 H         5.6852456190        1.2942297572       -2.3696098511
 H         7.1596197313        0.9228748518       -1.4812631652
 H         6.6928582052       -0.0390252437       -2.9493733089
 H         5.6179253606        1.5573735155        3.0565821940
 H         4.0779998370        2.1130156469        2.2613243593
 H         0.8145621308        0.4111910390        5.4300727771
 H         1.4502354775        2.0410405734        5.2849377407
 H         2.3444079114       -1.3383084094        5.3319195113
 H         3.9747645100       -1.7665908661        4.9151933078
 H         2.6878016830       -2.0258361910        3.7999991790
 H         4.8327519483        0.3941410253        5.3286230492
 H         4.1646841451        1.8747275002        4.7378619023
 H         3.4133408744        1.0223608200        5.9947465921
 H        -0.9164504050        2.3204278711        5.2396008246
 H        -1.1207420991        0.7970183941        4.1904704530
 H        -0.4308325544        3.9272830884        0.2464028030
 H         0.3575193322        5.5494664401        0.6348855474
 H        -2.4039578266        5.1098499181        3.5026900042
 H        -1.9667881246        4.8127445581        1.8346853517
 H        -1.1192861559        6.1024339885        2.7856261758
 H         0.9183339840        3.7103547594        4.6881754692
 H         0.6980025023        5.4740059744        4.6116697558
 H        -0.6352953124        4.5812503811        5.3550747721
 H         2.3599513176        3.3498565240        0.0134531359
 H         1.1012703467        3.3769235038       -1.1646882453
 H         5.0581355479        5.7652044924       -0.0026316780
 H         6.4971325841        4.8615881740       -0.4238049043
 H         6.0442240371        6.2461876124       -1.4761227446
 H         3.6971253974        4.1251403237       -4.1689474077
 H         2.0359952400        4.5578216913       -3.6144593388
 H         2.8012318923        3.1699320259       -3.1382481862
 H         2.7040930761        6.9611318588       -3.1214931806
 H         4.2567597198        7.1693253179       -2.1527321968
 H         4.2966826776        6.1897512273       -3.7498158222
 Na        2.0286814044       -0.7511745081        0.5311576378
