155

 C       -13.2837005619       -0.7748882591       -0.0053518223
 C       -12.2303846481       -1.6304783441       -0.6705953306
 C       -11.1052725341       -2.3301129443        0.2031231032
 C       -10.2226249977       -1.1072557213        0.6880424422
 C        -8.9916963371       -0.7448567350       -0.1880602398
 C       -11.6882703248       -3.0538298666        1.4473349572
 C       -10.3815334974       -3.2591736752       -0.7876413304
 O       -12.2806426495       -1.8528211324       -1.8671408878
 O       -10.6320172066       -0.4054049462        1.6315204702
 C        -7.8633289121       -0.1164177265        0.7475179762
 C        -6.6619013814        0.3544402626       -0.1361130917
 C        -5.4975957851        1.3714447274        0.2609941056
 C        -4.2782545138        0.5261054467        0.7873290074
 C        -3.0378525337        0.3887315550       -0.1791162612
 O        -6.5825425126        0.0447839206       -1.2922425824
 O        -4.2270954515       -0.1327072517        1.8245402296
 C        -4.9795201357        2.1404706630       -1.0274018112
 C        -5.9320637414        2.2857376254        1.4839285358
 C        -2.1487066394       -0.7235804165        0.2470890322
 C        -0.9048836772       -0.7686890370       -0.6261493872
 C        -0.5438710228       -2.0171691610       -1.4960185605
 C         0.3134491354       -3.0919128924       -0.6483149354
 C        -0.0410995030       -4.6432379721       -0.8097802703
 C        -1.8592048222       -2.6283804531       -1.9530869414
 C         0.1308120159       -1.4112032839       -2.7673262073
 O        -0.0674948011        0.0547247817       -0.3908276779
 O         1.1229505537       -2.7291812846        0.1844282242
 C         1.2395589623       -5.5058641296       -1.0293291877
 C         1.8722587834       -5.1798608261       -2.4293923020
 C         3.2168388435       -5.7156737872       -2.9435618942
 C         4.3943174063       -4.5283557674       -2.9290267342
 C         4.1153229101       -3.3675113931       -3.8980350528
 O         1.4054436637       -4.3226797638       -3.1452992540
 O         5.2333757661       -4.6461644106       -2.0561577560
 C         3.7255248060       -7.0555045289       -2.2328089388
 C         2.9092835299       -6.1063403719       -4.3782825965
 C         4.9064997386       -2.0908363629       -3.5846343096
 C         4.4950058918       -1.3098779201       -2.2530820171
 C         5.6738841885       -0.4833118208       -1.4291194583
 C         4.8550201512        0.5282294015       -0.5042421487
 C         5.5575528207        1.2504688160        0.6847820974
 C         6.4423019370       -1.4344550134       -0.5041161500
 C         6.5392398012        0.3988075447       -2.4718960077
 O         3.3554985345       -1.2608878410       -1.9299682725
 O         3.7138592351        0.8817066027       -0.6993185758
 C         4.8248242966        1.1177121518        2.0836879556
 C         3.9830243130       -0.0808048573        2.1520920767
 C         3.0728463857       -0.2678767238        3.4580324713
 C         1.7384925103        0.3049739974        3.1978252813
 C         1.0598711621        1.0375580612        4.4338427420
 O         4.0228417045       -1.0219125545        1.3481727158
 O         1.1189926544        0.2076606885        2.1308702406
 C         2.8151401489       -1.9033235419        3.5253022597
 C         3.6614061441        0.0086465830        4.8462713781
 C        -0.3340288492        1.5674115965        4.0164532188
 C        -0.5637705340        2.5739233934        2.8760829232
 C        -0.1896232675        4.0358172353        2.9715475666
 C         1.0812436292        4.0038940882        1.9836824108
 C         0.7555962589        4.2414790262        0.4959697578
 C        -1.4438653695        4.8442757017        2.4587941407
 C         0.3424020501        4.6002394484        4.3556057357
 O        -1.2589852322        2.2921273014        1.9287456821
 O         2.1141353911        3.5148089855        2.3460876080
 C         1.9338164048        3.9167350409       -0.5638497049
 C         2.3731428658        5.2231646018       -1.2427047540
 C         3.3396592400        5.1791953495       -2.4017784926
 C         4.6136000717        4.8632861734       -1.5365984950
 C         5.4137063897        5.9740833994       -0.9690062146
 O         2.0274419003        6.3089056911       -0.7485779492
 O         4.9691476765        3.6592135479       -1.3565660648
 C         3.1084370211        4.1407606336       -3.4660285184
 C         3.3384787892        6.6345219360       -3.0145364789
 H       -14.2375333435       -1.3238642230       -0.0040120654
 H       -13.0237793563       -0.3218666736        0.9625062753
 H       -13.5242730989        0.0225838631       -0.6517277608
 H        -8.5842196362       -1.6039839291       -0.6685027098
 H        -9.3103409851        0.1336287204       -0.9014843386
 H       -11.7369811935       -2.4969909720        2.4118996683
 H       -11.1207974951       -4.0269205510        1.6901089037
 H       -12.7872464526       -3.3949548510        1.3249818144
 H       -10.3955506721       -2.6718448712       -1.7490385743
 H        -9.2718621332       -3.4391918422       -0.6203781344
 H       -10.8917470121       -4.1631845193       -0.8775715732
 H        -8.2775943147        0.4648310798        1.5833482717
 H        -7.5813131658       -1.0107544928        1.3264820655
 H        -3.1121065010        0.4743051453       -1.2574609342
 H        -2.4501354917        1.2822903004        0.1119942833
 H        -4.7038199482        1.4452562677       -1.7649890627
 H        -4.0515454226        2.6364461271       -0.9124784849
 H        -5.5908473309        2.8739744573       -1.4742530138
 H        -6.8036246495        1.7907312793        1.9893569777
 H        -5.2532419667        2.5304479500        2.2950288408
 H        -6.3594537839        3.2005999394        1.0317727663
 H        -2.5509637398       -1.6963584876        0.3922374914
 H        -1.7778113055       -0.3711553963        1.2442422267
 H        -0.6397133040       -4.9864935505        0.1087958790
 H        -0.6292986880       -4.8612656284       -1.7088126405
 H        -2.4087374219       -3.1768280859       -1.1982408619
 H        -1.7160270006       -3.3264063804       -2.8041931567
 H        -2.5817040025       -2.0013542829       -2.3461377128
 H        -0.0123312026       -0.3492678706       -2.7048214472
 H         1.2014659224       -1.5450063886       -2.5825216362
 H        -0.1230820780       -2.0253558767       -3.6519702219
 H         1.9915930901       -5.2592225176       -0.2585442227
 H         1.0513502745       -6.5751967743       -0.9262409565
 H         4.2767134986       -3.8111046489       -4.9108420293
 H         3.0909940241       -3.0082606139       -3.8218605576
 H         3.5796176856       -6.9505129966       -1.1503819419
 H         4.8127851374       -7.3327277251       -2.4013534266
 H         3.1978727853       -7.9734537776       -2.6013728750
 H         1.9415559384       -6.7605500860       -4.3472670724
 H         2.7092708565       -5.3367084069       -5.1591936944
 H         3.6371164154       -6.7977931274       -4.8538696075
 H         4.5512074259       -1.4164110070       -4.3621018889
 H         5.9524196129       -2.0893114889       -3.8598969161
 H         6.5477544911        0.9252899902        0.9832129893
 H         5.6583005653        2.2810229671        0.3746579324
 H         7.4065877428       -0.9950307231       -0.3714941749
 H         6.5054226044       -2.4074959828       -0.9087722732
 H         5.9925571269       -1.4949067160        0.4700917630
 H         6.1169353075        1.3949161989       -2.5451897571
 H         7.5161466140        0.4302893085       -2.0062234870
 H         6.7127922375       -0.1763970767       -3.3833929935
 H         5.4441628627        1.0605088142        2.9403494634
 H         4.2002634231        2.0816677272        2.2426306692
 H         0.8639380924        0.1914614969        5.2720574020
 H         1.7334363078        1.8116531507        4.7412061429
 H         2.2258797732       -2.1563499489        4.4288757736
 H         3.7739251395       -2.3761368194        3.6462730163
 H         2.2467978266       -2.2192889684        2.6030105145
 H         4.6507790343       -0.5223586850        4.9880103805
 H         3.7801489427        1.0997966464        5.0499870783
 H         2.9419167565       -0.3812107572        5.6376040899
 H        -0.7737435054        2.0121951010        4.8937562295
 H        -1.0577968828        0.7387981082        3.9974331845
 H        -0.0887144091        3.6401913435        0.2702805262
 H         0.4210698953        5.2646738933        0.3975634505
 H        -2.2289690778        4.6836146501        3.1943318513
 H        -1.6941989823        4.4015534754        1.5006711152
 H        -1.1965034396        5.9181977253        2.3269613548
 H         1.1314894205        4.0062962348        4.6700192221
 H         0.6916257353        5.5910866453        4.1831172804
 H        -0.4344258941        4.4409306340        5.1066974793
 H         2.8350580282        3.5280103399       -0.0249217231
 H         1.5721458071        3.0567600023       -1.1201718106
 H         4.8266020818        6.6371024922       -0.3554556101
 H         6.2283697115        5.4372546845       -0.4644456413
 H         5.8545969379        6.5067737760       -1.8030064051
 H         3.9757349568        3.9209254350       -4.1707091252
 H         2.3660569926        4.3349249033       -4.2433369591
 H         2.8524532003        3.2129796974       -2.8840074346
 H         2.3745462619        6.8370601147       -3.4408020791
 H         3.5621746645        7.1640655642       -2.0904932460
 H         4.1401046477        6.6011023744       -3.6973090554
 Na        1.9389638153       -0.5647114462       -0.0472392874
