155

 C       -13.5399488028       -0.8859164768        0.1830096009
 C       -12.4160475844       -1.5282416735       -0.5922935037
 C       -11.1479586059       -2.1642203754        0.3274961037
 C       -10.2053696325       -1.0494964719        0.7849622985
 C        -8.9103752811       -0.6917847586       -0.0124329110
 C       -11.7942246373       -2.7843906778        1.5937213407
 C       -10.4250720338       -3.2347864935       -0.4448596908
 O       -12.5160034097       -1.7595310791       -1.7476438725
 O       -10.5041769004       -0.3188596233        1.6760645489
 C        -7.8430675404        0.1059469020        0.7501323175
 C        -6.7131331119        0.4678683185       -0.1825087904
 C        -5.4535526514        1.2755562825        0.3806086909
 C        -4.3078847437        0.2949504494        0.9731997348
 C        -3.0677069712        0.1220175539        0.0929375771
 O        -6.8632078781        0.3789444481       -1.3875424197
 O        -4.4502392219       -0.2047879801        2.0698915125
 C        -5.0343367523        2.3103601590       -0.6989374325
 C        -5.7998774066        2.1632974422        1.5965018809
 C        -2.2418344988       -1.1576874380        0.3630582274
 C        -0.9569292358       -0.9327097138       -0.4744381104
 C        -0.5457626580       -1.9949839390       -1.4836440883
 C         0.2596345476       -3.0962643121       -0.6363341288
 C         0.0754729165       -4.6213979541       -0.6923100026
 C        -1.7573109598       -2.6242814409       -2.1856343008
 C         0.4289915038       -1.4461163698       -2.5608507051
 O        -0.1889008317        0.0004547325       -0.2629183216
 O         1.1341847686       -2.6497799300        0.0614358591
 C         1.3863415517       -5.3837776872       -0.9679877548
 C         1.7689246935       -5.0439273629       -2.4468867605
 C         3.1849570430       -5.6767497678       -2.9434419599
 C         4.2234650292       -4.5075032712       -2.8830890548
 C         4.1318855782       -3.3277756284       -3.9032731723
 O         1.2115359069       -4.1509347264       -3.1020514403
 O         5.0659508300       -4.4708080086       -2.0022846087
 C         3.7808305068       -6.8570626673       -2.0294443253
 C         2.9150702653       -6.0848014885       -4.4247231436
 C         5.0888589759       -2.1334687103       -3.5653758939
 C         4.6147054894       -1.4272767521       -2.3017956041
 C         5.5399597996       -0.4704555544       -1.5653720710
 C         4.8445924087        0.5742606033       -0.6180386326
 C         5.5731626224        1.1566236538        0.5752672892
 C         6.5150738318       -1.4858342964       -0.8606597091
 C         6.5128414822        0.3480293931       -2.5573982665
 O         3.4414907609       -1.5821652801       -1.9252430571
 O         3.7589263309        1.0350587776       -1.0050239062
 C         4.9471612337        1.0297899939        2.0097984172
 C         3.8915293868       -0.1492341169        2.0837950541
 C         3.0479357406       -0.5683643534        3.3013276419
 C         1.5767439063        0.2296073767        3.1148693108
 C         0.9224374412        1.0541577832        4.2570479764
 O         3.8737505852       -0.8567954858        1.0780133353
 O         1.0852254847        0.0059610711        2.0406606993
 C         2.7229606320       -2.0904357138        3.3087270794
 C         3.7618650743       -0.0406204753        4.5788928724
 C        -0.4708637277        1.5499444144        4.1430734125
 C        -0.6843101336        2.4435404777        2.9306528445
 C        -0.1443222719        3.8994182968        2.9918609624
 C         1.1732260227        3.9099697398        1.9392007576
 C         0.8326262389        4.1043632125        0.4657725029
 C        -1.0762271109        4.9814387823        2.3305664048
 C         0.3546547115        4.4725273476        4.3175237999
 O        -1.1967636056        2.0073225142        1.9147351394
 O         2.3040618547        3.7709842802        2.3510116819
 C         1.9438967180        3.9291882734       -0.5641691654
 C         2.2269861247        5.2165681125       -1.2896483633
 C         3.4232132496        5.2319738108       -2.4016167170
 C         4.7266616580        4.9554437939       -1.5163475730
 C         5.5017190721        6.2019964036       -0.9761708670
 O         1.7438857737        6.2540392971       -0.9466227622
 O         5.1849246509        3.8878262680       -1.3871287939
 C         3.2666014565        4.0712078788       -3.3141143087
 C         3.4346244081        6.6130772087       -3.1674715086
 H       -13.8041867824       -1.5509194148        0.9957610775
 H       -13.1714964943        0.0726931520        0.6010785948
 H       -14.5331392844       -0.7336994668       -0.3430838024
 H        -8.4349734772       -1.6978319178       -0.2118209988
 H        -9.0050645398       -0.1231262076       -0.8505645337
 H       -12.1611941581       -2.0911553059        2.3118474086
 H       -11.0702915140       -3.3438356280        2.1132704046
 H       -12.5337589582       -3.4096115676        1.3926640634
 H        -9.8950259672       -2.8581081200       -1.3037050416
 H        -9.7534955538       -3.7003406608        0.2110348805
 H       -11.1750155491       -4.0182751670       -0.8379494833
 H        -8.2498230692        1.0404545178        1.1917778494
 H        -7.6293613732       -0.4723105190        1.6670496210
 H        -3.2089226493        0.2504686296       -0.9842686086
 H        -2.4136837933        1.0035642154        0.2694690420
 H        -4.8371041646        2.0042307463       -1.7243143103
 H        -4.1714848025        2.9597685998       -0.5887320819
 H        -5.8805987273        3.0512107396       -0.6949002573
 H        -5.8854131280        1.6237683781        2.5053978800
 H        -4.8708817479        2.6974007015        1.8006850806
 H        -6.5460982293        2.9173156498        1.3815842378
 H        -2.7739025659       -2.1236835021        0.2562994561
 H        -1.7222124212       -1.1457386625        1.2987732540
 H        -0.3055952985       -4.9750984766        0.2727289647
 H        -0.6136523654       -4.8929427283       -1.4658802170
 H        -2.4175562577       -3.3221524035       -1.6686739619
 H        -1.4987221512       -3.1338414297       -3.1345523974
 H        -2.5050378949       -1.8532158621       -2.5364096695
 H         0.1776328959       -0.3851142218       -2.6684755826
 H         1.4486099411       -1.5352240809       -2.3723072222
 H         0.1723416946       -2.0009442990       -3.4334721113
 H         2.1309587182       -4.8865001643       -0.3677446839
 H         1.3713538003       -6.4050224485       -0.6493821138
 H         4.2115878131       -3.6354818511       -4.9349028113
 H         3.1263307036       -2.9015224760       -3.7182078928
 H         4.3648700863       -6.4003996593       -1.2605806410
 H         4.3506139771       -7.4408337889       -2.6785275847
 H         3.0675770027       -7.5158880609       -1.6584432070
 H         2.7773232606       -7.0982025815       -4.6980983063
 H         2.1018211736       -5.4993169389       -4.8313297737
 H         3.7247708059       -5.6819126122       -5.0657755400
 H         5.2591013783       -1.5010467218       -4.4674730114
 H         6.1058100629       -2.5919763011       -3.5183204808
 H         6.6157774614        0.9241790610        0.7699450160
 H         5.5789498726        2.2274769050        0.3362293238
 H         7.1195562676       -0.9891513734       -0.0830953715
 H         7.1758891392       -1.9957855872       -1.6275215548
 H         5.8928505937       -2.2238260356       -0.3021633018
 H         5.9306248136        1.2132709056       -2.8981523312
 H         7.4110917886        0.5563661121       -1.9990820121
 H         6.8499489157       -0.2614520094       -3.3765611520
 H         5.7546191208        0.9209045191        2.8057640479
 H         4.5470662643        1.9596764748        2.2531946602
 H         1.0160913097        0.3585348581        5.0498679734
 H         1.6249606750        1.8629693761        4.4052073476
 H         1.9978119949       -2.2876788070        4.1132175933
 H         3.6706248976       -2.6151429202        3.6280764157
 H         2.3124583484       -2.4092478174        2.3487127327
 H         4.7442405959       -0.5255695932        4.5618810892
 H         3.8616244125        1.0114300143        4.7414638439
 H         3.3102443749       -0.4760222454        5.3840186302
 H        -0.8915633031        2.0126469744        5.0596394095
 H        -1.1438685584        0.7046270931        4.1151116689
 H        -0.0734944980        3.4483618805        0.2283741837
 H         0.4487367015        5.1605086314        0.4283687575
 H        -1.7731550790        5.2220285121        3.1164350747
 H        -1.5617967396        4.6438352090        1.4399489828
 H        -0.4732776873        5.8260984416        2.0940853982
 H         1.1481717887        3.8537643487        4.7533009242
 H         0.7207017804        5.4767843815        4.1784514325
 H        -0.4701109920        4.4874505335        5.0065745520
 H         2.7796576010        3.4512283316       -0.1084220373
 H         1.5791814008        3.1415258243       -1.2578219881
 H         4.9595860927        6.7131192967       -0.1775144441
 H         6.4516913758        5.8203315248       -0.7430344991
 H         5.6104082806        6.8948770543       -1.8108566302
 H         4.0887201162        3.9225590324       -3.9500169522
 H         2.4634458765        4.2492815122       -4.0596917252
 H         3.0380035936        3.1916398669       -2.7946822905
 H         2.7295387593        6.3084152649       -3.9713569755
 H         3.0251964390        7.3100086735       -2.4779269430
 H         4.4176845493        6.7130049435       -3.7140113126
 Na        2.1419833008       -0.6611507707       -0.1626030065
