155

 C       -12.4544454012        1.2446990153        1.5835126604
 C       -11.5960482665       -0.0276259645        1.2740791491
 C       -10.9816362529       -0.8432893185        2.4253769626
 C        -9.7879209826        0.0131729610        2.9164286089
 C        -8.7081213003        0.4633539743        1.9362828599
 C       -11.9023492387       -1.0932486903        3.6910262427
 C       -10.1737705714       -2.1646267994        1.9855575916
 O       -11.4049135929       -0.3180850744        0.1160943112
 O        -9.6755462316        0.1703279959        4.0963887842
 C        -7.2045622390        0.2352906620        2.3866767644
 C        -6.2811624723        1.2481852832        1.6426776311
 C        -4.7241423779        1.0936390250        1.7948114767
 C        -4.3595390974       -0.2015831086        0.8185434815
 C        -2.9741304361       -0.1744906697        0.1493189236
 O        -6.6974586489        2.0732623668        0.8358488986
 O        -4.9716893638       -1.2435952023        0.8855469119
 C        -4.0420805288        2.4237866566        1.3886440181
 C        -4.4017587651        0.7978455763        3.3590825621
 C        -2.8622375219       -1.3875790792       -0.8478966224
 C        -1.4256845840       -1.6540839616       -1.2516898214
 C        -1.2093937829       -3.0014070428       -2.1631614883
 C        -0.2237253119       -3.8979005850       -1.3544499804
 C        -0.4389683692       -5.5164137104       -1.3645526593
 C        -2.4812764436       -3.8384105765       -2.5488311716
 C        -0.3907470595       -2.6638100284       -3.3233537431
 O        -0.5835062206       -0.8741283983       -0.8336266726
 O         0.5997643183       -3.3828240154       -0.5732609639
 C         1.0024493612       -6.1685749112       -1.3903969756
 C         1.6144522079       -6.0806318224       -2.8411281036
 C         3.1776950081       -6.2770250464       -2.9733744408
 C         3.8461007578       -4.8340422016       -3.4175017036
 C         3.1685168520       -4.0594206396       -4.7160379546
 O         0.9229672999       -5.8432818488       -3.8453217871
 O         4.7936104090       -4.3302622290       -2.8661210194
 C         3.8637871608       -6.8900200619       -1.7263193895
 C         3.3725114654       -7.1545872450       -4.2672876642
 C         3.3868160538       -2.5161939195       -4.7465746243
 C         3.5441290472       -1.9494611235       -3.3525913992
 C         4.6205862902       -0.7914230825       -3.1643979358
 C         4.1761252849        0.0346758906       -1.9383284301
 C         5.2525350908        0.3535336923       -0.8077960017
 C         6.0807069532       -1.2864174132       -3.2016184204
 C         4.2780532247        0.2545921073       -4.3174496975
 O         2.7768316476       -2.1901143274       -2.4465507047
 O         3.0349564987        0.4258739808       -1.8924261272
 C         4.5502947226        0.6555245547        0.5121084120
 C         4.0269108631       -0.5151267276        1.3256745413
 C         3.4949883640       -0.1952566383        2.8124776863
 C         2.0082676435        0.2793806120        2.6394316936
 C         1.2432943396        0.8460851277        3.9149856589
 O         3.8859557669       -1.6140204889        0.8022801249
 O         1.4450630036        0.3618868686        1.5290605565
 C         3.3595512498       -1.4986735398        3.6721007107
 C         4.2957745643        0.8762283795        3.5872760463
 C        -0.2134092272        1.2789148713        3.6274225562
 C        -0.3757618072        2.2554843336        2.3788358681
 C         0.2386405980        3.7256992256        2.7383322837
 C         1.4815078805        3.9159619619        1.8290895097
 C         1.2724517230        4.5123831509        0.4463563379
 C        -0.9011465636        4.8298166210        2.3575965922
 C         0.6781616226        4.0227405601        4.1878208967
 O        -1.0159683952        1.9571113165        1.4104629081
 O         2.5856491233        3.5872681699        2.2086007767
 C         2.5439330126        4.4734512787       -0.3836510129
 C         2.5863930541        5.7083281498       -1.3340025420
 C         3.8357109242        5.8764871425       -2.2477420092
 C         4.8563377814        6.4818222176       -1.1545256859
 C         4.8840855607        7.9657350804       -1.0640944710
 O         1.7323627741        6.5949865515       -1.3277443753
 O         5.4326265422        5.6923865745       -0.4967856982
 C         4.4717602505        4.4234705333       -2.6665369306
 C         3.6220699887        6.8022871593       -3.5144807817
 H       -12.3984751716        1.9676883896        0.8091089330
 H       -13.3997738623        0.8149463074        1.8256719042
 H       -12.0139206661        1.7635746087        2.4476811416
 H        -8.8163396022        0.2252344418        0.9131382231
 H        -8.6886494828        1.6015739965        1.8310020498
 H       -12.1892810522       -0.1304169145        4.1232447959
 H       -11.3563228599       -1.6426452231        4.4652553911
 H       -12.8086103501       -1.6577592621        3.2100440316
 H       -10.6387650855       -3.0357124635        2.2808656218
 H       -10.2798783729       -2.3287243923        0.9276215113
 H        -9.1301749973       -2.2944752822        2.3564198605
 H        -7.2076345732        0.4134475048        3.5215109044
 H        -6.9306546755       -0.8213843286        2.1491437191
 H        -2.7426488716        0.7651645049       -0.3822107890
 H        -2.1952448670       -0.1613443095        0.9459117937
 H        -4.4129509811        2.6778564011        0.3413029879
 H        -2.9326965725        2.2374272909        1.4542454694
 H        -4.3541291024        3.2052730043        2.0819553861
 H        -5.0122451338       -0.0708518062        3.6734935575
 H        -3.3444053055        0.5768021633        3.4701243050
 H        -4.7677321333        1.6549053328        3.8735327157
 H        -3.5173061893       -1.2321809252       -1.6679601661
 H        -3.1069604111       -2.2608877157       -0.2711539336
 H        -0.9999040310       -5.7557207261       -0.4412729916
 H        -1.0269358831       -5.7266283339       -2.1866876975
 H        -2.9769004494       -4.1609863896       -1.7165797351
 H        -2.0367497326       -4.5223665225       -3.3226733435
 H        -3.2344526230       -3.1507324523       -2.9814746203
 H        -0.9681985182       -2.2316052441       -4.2343519186
 H         0.4638881394       -2.0390544876       -3.1086966430
 H         0.1533571573       -3.5413719521       -3.7654083573
 H         1.5902762055       -5.6053479695       -0.7248151270
 H         1.1020513701       -7.2239919689       -1.1695654310
 H         3.6332736795       -4.4232191370       -5.6243174278
 H         2.0789102133       -4.1872314726       -4.7808502244
 H         4.0739778597       -6.0716128843       -1.0080782965
 H         4.8110689226       -7.3566848105       -1.9315176159
 H         3.2862619797       -7.6334388670       -1.1690580697
 H         2.3909961923       -7.3473925652       -4.8366355280
 H         4.0073144828       -6.7978043369       -5.0852778317
 H         3.7834311208       -8.1357147708       -4.0258057936
 H         2.4985052619       -2.0211501476       -5.1602084640
 H         4.2093604489       -2.2735133480       -5.4582050184
 H         5.8739540503       -0.5170909255       -0.7707000053
 H         5.8712776955        1.1548274406       -1.2105713698
 H         6.7994576983       -0.4539009712       -2.9846529487
 H         6.3027327497       -1.4669831489       -4.2876718859
 H         6.3070150634       -2.1767437552       -2.5887521853
 H         3.2813442319        0.6624609991       -4.3118554255
 H         4.9194347576        1.1912356841       -4.2792142203
 H         4.3604346721       -0.0655606795       -5.3592776469
 H         5.2058424850        1.2109950631        1.1185397706
 H         3.6801796562        1.2988464982        0.2470824614
 H         1.2244139190        0.0622133917        4.6643514945
 H         1.8099091365        1.6136095330        4.1513259636
 H         3.1780973982       -1.2543628689        4.7257930691
 H         4.2209035443       -2.2016990470        3.5822601876
 H         2.4631940055       -2.0724761644        3.4034386679
 H         5.4026928146        0.6735086141        3.8241460856
 H         4.1401821635        1.8575339226        3.1624220796
 H         3.9641467861        0.9386876206        4.5984590926
 H        -0.5884609502        1.6604333400        4.6133510611
 H        -0.7261558510        0.3056165471        3.3674696392
 H         0.4817676498        3.9815288775       -0.0915954659
 H         0.8195159009        5.5028764919        0.6720970315
 H        -1.8040773101        4.6458148832        2.8671270812
 H        -1.1043311490        4.8583683923        1.2862941247
 H        -0.6540881676        5.7862416492        2.7453289594
 H         1.5688456627        3.4857465899        4.5543304593
 H         0.8034002861        5.1474469152        4.1769917987
 H        -0.1850904001        3.6870692702        4.8458153888
 H         3.3963169648        4.4381881768        0.2554566932
 H         2.6235423527        3.5246028606       -0.9553425875
 H         3.8424168096        8.3942631100       -1.1216463053
 H         5.3049746387        8.1936401213       -0.1303861395
 H         5.4692054997        8.2779100384       -1.9407298976
 H         5.2232940927        4.5750344136       -3.4080860865
 H         3.7944680226        3.6912553120       -3.1111925489
 H         4.8791242874        3.9751269933       -1.8037128652
 H         3.3826752305        6.1531001950       -4.3911042040
 H         2.8667327343        7.5161048445       -3.3321846547
 H         4.5196272185        7.4054477151       -3.8760253711
 Na        1.8800135829       -1.2999039916       -0.5271726748
