155

 C       -12.1943201813        1.4954003637        1.8802720186
 C       -11.3445157818        0.2449491391        1.5183209540
 C       -10.9269995314       -0.7857572333        2.6636937106
 C        -9.4921461823       -0.0684235142        3.0866962986
 C        -8.3068568456       -0.0390363166        2.0936374164
 C       -11.8462246662       -0.7118425681        3.8933011908
 C       -10.6973440103       -2.2877782756        2.2002183838
 O       -10.8483664014        0.1543029161        0.4422015601
 O        -9.4000225522        0.3994255598        4.2009608949
 C        -6.9121336780        0.2557489258        2.7014341271
 C        -6.1233803597        1.2268873503        1.8093336358
 C        -4.6058621629        1.0169481547        1.8552671446
 C        -4.1532688918       -0.1907898170        0.9221577894
 C        -3.0123797930        0.0220630696       -0.1118005441
 O        -6.7146865950        2.2286601506        1.4058245709
 O        -4.7864522777       -1.2565576920        1.0174566235
 C        -3.9433293718        2.3877029730        1.4523294434
 C        -4.0153542691        0.6910095949        3.3229932520
 C        -2.9061928941       -1.2904606171       -0.8976286688
 C        -1.4824016665       -1.6816759777       -1.3226098841
 C        -1.3147801003       -3.1311406833       -1.9971597787
 C        -0.2992502934       -4.0285181582       -1.2747667006
 C        -0.4898111927       -5.6926168523       -1.1690591571
 C        -2.6485302200       -3.8936655930       -2.1824669312
 C        -0.6941058618       -2.9292404053       -3.4021204322
 O        -0.6622774248       -0.8121186074       -1.2239824060
 O         0.6079504687       -3.5488821876       -0.5964031031
 C         0.9755451104       -6.2661111273       -1.2436371826
 C         1.4691748495       -6.2030809838       -2.7668255621
 C         3.0039486170       -6.3673379989       -3.1723603188
 C         3.5246240591       -4.9009472391       -3.5010619167
 C         2.9493433255       -4.0475437350       -4.7122606333
 O         0.7465143848       -5.9834176944       -3.7169495407
 O         4.5112295498       -4.5266223992       -2.8958094833
 C         3.8725986872       -6.9150705174       -1.9504513467
 C         3.1644966947       -7.4332781606       -4.3684893561
 C         3.8110686297       -2.7955064097       -4.7310411209
 C         3.5185726224       -1.9168221905       -3.5685719805
 C         4.5218269384       -0.6698989465       -3.3010699283
 C         4.1611749439       -0.0281807242       -1.9193887781
 C         5.3233863524       -0.0093550381       -0.9128392372
 C         6.0352505983       -0.9601264742       -3.4713557978
 C         3.9799854724        0.3503865219       -4.3374273640
 O         2.4537643153       -1.9812552937       -2.9569860279
 O         3.0062952116        0.3225769491       -1.7965561247
 C         4.8938918107        0.5468091571        0.3904549072
 C         4.0953282601       -0.5534913283        1.0811166206
 C         3.5351492303       -0.2879406913        2.5823618975
 C         1.9426010948       -0.0659889293        2.5885767715
 C         1.2987073253        0.8684623925        3.7248828417
 O         3.8088189615       -1.6204926772        0.4998060245
 O         1.2382004136       -0.6219540441        1.7847824848
 C         3.8114324311       -1.5489978477        3.4012544823
 C         4.1690545663        0.9292184830        3.2557091121
 C        -0.0800246901        1.4255862870        3.5405303921
 C        -0.3689781828        2.5043440469        2.4911133929
 C         0.1023027746        3.9980647356        2.6888062660
 C         1.2621651060        3.9023075249        1.6628610667
 C         1.1110456054        4.5505625788        0.2864055824
 C        -1.0332580688        5.0081697698        2.4846672923
 C         0.4752216270        4.2307530391        4.1660973083
 O        -0.8752215129        2.1246677183        1.4623726396
 O         2.3347791249        3.3432154806        2.0381728912
 C         2.3334818977        4.5073396985       -0.5825590583
 C         2.5273040342        5.8958127441       -1.3339538030
 C         3.8528007064        6.0198809968       -2.2252338246
 C         4.8995369998        6.6309808070       -1.1119299337
 C         5.0642808215        8.1320113157       -1.1246392370
 O         1.7636676878        6.7993128555       -1.1217861057
 O         5.5949164785        5.9119805695       -0.4514793320
 C         4.4331056250        4.7078193894       -2.7794664360
 C         3.6565315936        7.0220261890       -3.3215558698
 H       -12.2963728998        2.0395612853        0.9897681721
 H       -13.0641211765        1.0710370699        2.4046290562
 H       -11.6542733563        2.1621125728        2.6129843145
 H        -8.1644008476       -0.9966233497        1.6073703777
 H        -8.4516073107        0.5747698157        1.2027050417
 H       -11.5273721015        0.2581105790        4.4476994853
 H       -11.5313563329       -1.5735149037        4.5111366744
 H       -12.9887938843       -0.7708426209        3.7315913494
 H       -11.2287641070       -2.7096986622        1.4166178340
 H        -9.6931375751       -2.4970294371        1.9150578190
 H       -10.9193555925       -2.9316544267        3.0706551966
 H        -6.9543061074        0.6120754160        3.7581389091
 H        -6.4378914592       -0.7724634632        2.8047301736
 H        -3.2284612281        0.9278865474       -0.7106513621
 H        -2.0813772953        0.3514403240        0.3446054721
 H        -4.4089563117        2.7357069355        0.5217968069
 H        -2.8894930021        2.0934563925        1.2022355772
 H        -3.9492290263        2.9771607757        2.3617498030
 H        -4.1717938156       -0.3672905669        3.5016360668
 H        -2.9281923674        0.9049713955        3.3243204891
 H        -4.4194517687        1.4336235689        3.9736278108
 H        -3.6078515067       -1.3442965434       -1.7628026258
 H        -3.3472340207       -1.9970670470       -0.1675143206
 H        -0.8552460392       -5.7422221056       -0.1911507054
 H        -1.1312725541       -6.1211480231       -1.8977259761
 H        -2.9000381432       -4.2537737140       -1.2267497137
 H        -2.4902479134       -4.7589148047       -2.9470152930
 H        -3.4422551130       -3.2691348771       -2.5953655304
 H        -1.1686979650       -2.1928311367       -4.0663499090
 H         0.3164592939       -2.4651782804       -3.3489011035
 H        -0.3939562776       -3.8696083307       -3.7953351314
 H         1.7277815808       -5.8676034523       -0.5809344957
 H         0.8087932166       -7.3476899445       -1.0012110616
 H         3.2205761874       -4.4949095427       -5.6603130065
 H         1.9253243004       -3.7104799815       -4.6796913411
 H         3.7576481154       -6.4421210926       -1.0277867849
 H         4.8943905012       -6.9642865918       -2.1902685009
 H         3.6979083688       -7.9220992143       -1.8158401047
 H         2.2853052524       -8.0013601722       -4.5193756481
 H         3.2768689373       -7.0252819618       -5.3548562373
 H         3.9145776542       -8.0774255870       -4.1342344400
 H         3.6520442980       -2.1996095690       -5.6385900586
 H         4.8831559548       -3.1151425555       -4.6267350409
 H         5.8312064083       -0.9428114252       -0.9341735261
 H         5.9585181842        0.7664362627       -1.3194089847
 H         6.6966000190       -0.2809292182       -2.9621853291
 H         6.3914490930       -0.9381555208       -4.5223782095
 H         6.2379103031       -2.0112479649       -3.2002743230
 H         2.9601587848        0.5787199709       -4.0972348406
 H         4.4721273591        1.3268126216       -4.2536937426
 H         4.1375230854        0.2581244597       -5.3596391176
 H         5.8070793996        0.8383939983        0.7766420344
 H         4.2911038866        1.5094448599        0.2528051202
 H         1.4874877663        0.2834111674        4.5921882476
 H         1.9510601044        1.6721608092        3.8092337315
 H         3.1832594154       -1.8394219478        4.2641576419
 H         4.8926989613       -1.5131971389        3.7273248285
 H         3.7744735969       -2.4586266926        2.7263285248
 H         5.2469020212        0.9168489048        3.1502730259
 H         3.7726912120        1.9597773111        3.0090261307
 H         3.9394325956        0.8930594409        4.3971163163
 H        -0.3415214554        1.8183997984        4.5515095399
 H        -0.6927652382        0.5884471117        3.1590303494
 H         0.2449697936        4.2064915917       -0.2075858420
 H         0.8235133488        5.6174118779        0.4971230492
 H        -1.8990339159        4.8296314681        3.1242153568
 H        -1.2640945515        4.9164377537        1.4051448224
 H        -0.6908375049        6.0417724237        2.5404046205
 H         1.4597898429        3.8457848342        4.3759528217
 H         0.4221652612        5.3185698615        4.3788519898
 H        -0.4083102297        3.9174637731        4.7881051329
 H         3.2281830698        4.1552803805       -0.0798226625
 H         2.2892719898        3.8427484493       -1.4937646812
 H         4.0960138316        8.6040254110       -0.8902476504
 H         5.6954416814        8.5086029765       -0.3996921287
 H         5.4262505497        8.2826318839       -2.1425099119
 H         5.4245112298        4.9951962152       -3.0931365410
 H         4.1085420036        4.2321333158       -3.7374990894
 H         4.4926591255        4.0055507807       -1.9644320465
 H         2.9794741489        6.6569279666       -4.0791750164
 H         3.3689561278        8.0189024218       -3.0001665579
 H         4.5394399263        7.2395580088       -3.8833389674
 Na        1.7265107574       -1.5026538033       -0.6455772069
