155

 C       -12.2135043229        1.5205792808        2.0019865970
 C       -11.1796480311        0.4265624955        1.6827705231
 C       -10.8810293391       -0.5944974327        2.7571773486
 C        -9.3467472497       -0.2047397116        3.2569675611
 C        -8.1272763930       -0.3800567389        2.3252703304
 C       -11.8341555936       -0.4043655509        4.0630637991
 C       -10.8872588939       -2.0518464701        2.1604246868
 O       -10.7817717549        0.2003796860        0.5341447673
 O        -9.1239469939        0.3292634721        4.3057685461
 C        -6.7959013161        0.2654370578        2.8673572132
 C        -6.0632776939        1.2164591538        2.0278831491
 C        -4.4834785693        1.0225620567        1.9109094294
 C        -4.1694794783       -0.2241556262        0.9945481471
 C        -3.1643889328       -0.0356504333       -0.2474835392
 O        -6.5792931881        2.1763024761        1.4725731463
 O        -4.7020485206       -1.2548015415        1.2491900866
 C        -3.9365820687        2.4049142298        1.2850566775
 C        -3.9245048293        0.6347620975        3.2680213008
 C        -2.9333077298       -1.3232400287       -1.0004872783
 C        -1.5090209666       -1.7859570861       -1.2435667185
 C        -1.3079060474       -3.1737134534       -1.9232063032
 C        -0.2353531562       -3.9935541874       -1.2485994519
 C        -0.3850699933       -5.5014846426       -1.1955321864
 C        -2.6500251216       -3.9353717642       -1.9713651624
 C        -0.9041638189       -2.9874892264       -3.4006137102
 O        -0.5128309549       -1.0512342096       -1.2495552766
 O         0.6074005691       -3.4896160785       -0.5439552686
 C         0.9616767896       -6.1462741355       -1.2886417952
 C         1.4154574086       -6.1023553068       -2.8267109679
 C         2.9414562509       -6.4720558742       -3.1521780811
 C         3.6281279994       -5.0008234247       -3.3970421012
 C         3.0415888579       -4.3096827838       -4.6246382149
 O         0.5982789539       -5.9630060911       -3.7448090797
 O         4.5561908259       -4.6237535891       -2.7104216853
 C         3.6473503777       -7.1388093613       -1.9859246251
 C         2.8731614215       -7.2831451627       -4.4639136782
 C         3.6939655118       -2.8538019871       -4.8333643910
 C         3.4241374609       -1.8564767813       -3.6469320397
 C         4.3767107339       -0.6020393328       -3.4553991812
 C         4.2328371079       -0.0796598927       -1.9756971792
 C         5.5306933288        0.1814895869       -0.9954971302
 C         5.8020655607       -1.0218051186       -3.8925765590
 C         3.7879760420        0.4808553048       -4.4312030634
 O         2.3540633018       -1.9763138401       -3.1190088180
 O         3.1946601654        0.3547958518       -1.4686062007
 C         4.9481093382        0.4632119788        0.4506270672
 C         3.9612564238       -0.5777081001        1.0426154663
 C         3.5021033283       -0.3368363481        2.4909140846
 C         1.9316671104       -0.1370487119        2.5248700295
 C         1.4098785389        0.9285512742        3.4735484767
 O         3.5338965762       -1.5568235735        0.4893084173
 O         1.1589596097       -0.8017143783        1.8265763705
 C         3.9162929755       -1.6053080885        3.2944570227
 C         4.2592655543        0.8850006844        3.1049194521
 C        -0.1403266130        1.2801342910        3.4516956210
 C        -0.3719647011        2.4155282122        2.4491753779
 C         0.0764053856        3.8854985607        2.6710677842
 C         1.2851272652        3.9886021851        1.6894002474
 C         1.0459114153        4.7085692579        0.3681637516
 C        -1.0387093789        4.8703721816        2.2875532533
 C         0.6274976941        4.1685067282        4.1855421549
 O        -0.8345245674        2.1352508630        1.3677071193
 O         2.2871274275        3.4531508880        1.9782614948
 C         2.2390164850        4.5318820713       -0.5825289181
 C         2.6272899451        5.9482485594       -1.3092411827
 C         3.9077137721        6.1630940588       -2.1855109991
 C         4.9942109732        6.7220766010       -1.1654240536
 C         5.2200571487        8.2678461786       -0.9854273502
 O         1.8217676651        6.8492466687       -1.1703202880
 O         5.6134476228        5.9286760942       -0.5161923250
 C         4.4379386364        4.7831474847       -2.7332811153
 C         3.4439051345        7.1457459477       -3.3560310824
 H       -12.2024010737        2.2771252427        1.1756761609
 H       -13.1059859601        0.9780491148        2.1508738032
 H       -11.9714004459        1.9243690449        2.9447295752
 H        -7.9354672404       -1.4496077538        2.0730377178
 H        -8.4041551908        0.0134823236        1.3069472380
 H       -11.7473300346        0.5475977256        4.4174494798
 H       -11.5706203724       -1.1599847948        4.8065720986
 H       -12.8701140867       -0.6138121572        3.8090665852
 H       -10.9013389643       -1.9909002123        1.0368482986
 H        -9.9721229659       -2.6690793559        2.4876739404
 H       -11.7272655682       -2.6884228683        2.3603401560
 H        -7.2194376407        0.7537183027        3.7906034737
 H        -6.2049655975       -0.4874625948        3.3154986756
 H        -3.5411443225        0.7494272443       -0.8962193110
 H        -2.2148888950        0.4998764551        0.0051113261
 H        -4.6065724449        2.6748277432        0.4797770414
 H        -2.9500467819        2.3129972461        0.9056832682
 H        -4.0166049180        3.0150817781        2.1681028196
 H        -4.3797185930       -0.3427475362        3.4545246718
 H        -2.8657035494        0.4609478963        3.1885922300
 H        -3.9805275314        1.4655523580        3.9777786322
 H        -3.3969578192       -1.4147228893       -1.9748477845
 H        -3.4463235571       -2.0884486172       -0.4365927721
 H        -1.0553360717       -5.7063945715       -0.2827755825
 H        -0.9397307767       -5.5205157456       -2.1813058451
 H        -2.8843590896       -4.1603825724       -0.8937134309
 H        -2.6261781306       -4.8573725181       -2.4876398481
 H        -3.3968196317       -3.3405206878       -2.5376334055
 H        -1.7109599652       -2.5963276770       -4.0233774175
 H        -0.1757008883       -2.2440722041       -3.6263665583
 H        -0.3930905501       -3.9249704509       -3.7582917513
 H         1.6742014062       -5.5461917615       -0.7053210036
 H         0.9768324456       -7.0794436740       -0.8073311185
 H         3.4392387449       -4.8684690291       -5.4681092337
 H         1.9443157388       -4.2133049399       -4.5975637797
 H         3.8738317069       -6.3158619977       -1.2534853503
 H         4.5624656316       -7.6844003296       -2.2162628377
 H         3.0792396733       -7.9326859893       -1.4325254412
 H         2.3751934935       -8.3114335089       -4.2559229191
 H         2.1303880441       -6.8115768288       -5.1382137207
 H         3.8770465081       -7.5568276786       -4.9719812608
 H         3.2323081016       -2.3138049155       -5.6789530598
 H         4.7154949635       -3.0762349055       -5.0106217110
 H         6.0048966509       -0.8314497837       -0.9523399996
 H         6.1949572505        0.9738513689       -1.4291438330
 H         6.4510911763       -0.1007638221       -4.0024963893
 H         5.8314738254       -1.5770620760       -4.8257438884
 H         6.3028395708       -1.7192170138       -3.2094697932
 H         2.7695674552        0.7503513335       -4.1805848176
 H         4.2971674706        1.4191871698       -4.6337872835
 H         3.8261220082        0.0581423896       -5.4719041606
 H         5.8639297373        0.7540779530        1.0659593057
 H         4.3451771464        1.3187127698        0.4259661937
 H         1.8947081250        0.5169392531        4.5051726803
 H         2.0736979040        1.8124875880        3.3311709408
 H         3.5992476626       -1.4742738720        4.3525078837
 H         4.9926017930       -1.7615496590        3.3236643735
 H         3.4633258841       -2.5214614209        2.9749918644
 H         5.3496583830        0.6171604317        3.1391306751
 H         4.2050163858        1.7188397766        2.4724731705
 H         3.9096487664        1.2223279052        3.9683223016
 H        -0.2742393922        1.5523080703        4.4902898215
 H        -0.6599651354        0.3839682798        3.0802364690
 H         0.0558293893        4.3270231356       -0.0721012400
 H         0.8257052156        5.8045975639        0.3744148470
 H        -1.8897360642        4.5708146662        2.8531739707
 H        -1.2752796876        4.9331765066        1.2509953314
 H        -0.7553593163        5.8631092932        2.5399786827
 H         1.5950778666        3.6145983155        4.2536530049
 H         0.8731237225        5.2373624564        4.2691127192
 H        -0.1444270730        4.0751722183        4.9095651728
 H         3.1515088273        4.1546111805       -0.1147030952
 H         2.0675748749        3.9299286170       -1.4363741579
 H         4.3203662160        8.8151777776       -0.7926344561
 H         5.7058689431        8.3681847916        0.0265995943
 H         5.9035799082        8.6478628268       -1.7398863424
 H         5.4494982089        4.8810711329       -3.1108376474
 H         3.8531366492        4.4336034296       -3.5281343658
 H         4.4642117589        4.0505453526       -1.9445673503
 H         2.5106324376        7.0572123518       -3.9700497624
 H         3.4534509321        8.1481533933       -2.9581908302
 H         4.2937049376        7.3021507120       -4.1196930702
 Na        1.7067173923       -1.5592866982       -0.7235443357
