155

 C       -12.1320751067        1.7446955004        1.9523738860
 C       -11.0586448503        0.6625500912        1.7184606885
 C       -10.7916002550       -0.4145269260        2.8887123153
 C        -9.3019464178       -0.1907702282        3.4579042425
 C        -8.1735181964       -0.4337407760        2.4643622274
 C       -11.5889465219       -0.4478591700        4.2326065100
 C       -10.8719788794       -1.8665511840        2.3331743522
 O       -10.6372548517        0.4521031765        0.6041039997
 O        -9.0401430256        0.2520803244        4.5991631307
 C        -6.7642079332        0.0020480730        3.0621266010
 C        -6.0084946853        1.1085969288        2.1681007685
 C        -4.4662696723        1.1183083080        1.9572304910
 C        -4.1111956855       -0.1755282989        0.9822771808
 C        -3.1982649410        0.0618557258       -0.2240049574
 O        -6.6837197138        1.8195054248        1.4727261371
 O        -4.5136361660       -1.3276727713        1.2662777983
 C        -3.9868874993        2.4353781047        1.3279174221
 C        -3.6490502391        0.9130925542        3.1929345769
 C        -3.2126600480       -1.2481229140       -1.0004792557
 C        -1.6895326025       -1.7708214062       -1.3512735585
 C        -1.4784408669       -3.2542910548       -1.9008587680
 C        -0.3639686426       -4.0676837361       -1.0815899128
 C        -0.4162982807       -5.6849639970       -1.0074402334
 C        -2.8263700928       -3.9616773345       -1.8876226011
 C        -0.9728245463       -3.1287601574       -3.3430047460
 O        -0.8095326078       -1.0605349014       -0.9590863904
 O         0.5887446596       -3.5190407372       -0.6037880401
 C         1.0637576680       -6.1452208173       -1.2292233455
 C         1.3270527749       -6.1587049925       -2.8329032282
 C         2.9448998234       -6.5571968516       -3.2231038706
 C         3.6552999058       -5.2095285643       -3.4020604764
 C         3.0570679452       -4.3196758992       -4.6435236605
 O         0.5713563753       -5.7184358846       -3.6488984865
 O         4.4008743989       -4.7820330499       -2.5455156986
 C         3.5827826516       -7.4288662350       -2.1210286294
 C         2.9377574799       -7.4224206678       -4.6257160974
 C         3.5578602342       -2.8724718149       -4.8216416478
 C         3.3312466687       -1.9054260560       -3.6954410101
 C         4.2116776339       -0.5826003911       -3.5945747927
 C         4.0901150442       -0.1327631368       -2.0655395218
 C         5.3417915352       -0.1794238698       -1.2070196068
 C         5.7219324777       -0.7435230623       -3.9770367842
 C         3.6210895906        0.6126985747       -4.4487044730
 O         2.3898373966       -2.1324144926       -2.9337372847
 O         3.0006833277        0.2860963309       -1.7757280533
 C         5.2199287309        0.3358061392        0.2450654241
 C         4.1356848358       -0.5557896943        0.9985568614
 C         3.6239032343       -0.2599093834        2.4583742767
 C         2.0832598842       -0.0394572637        2.3684187462
 C         1.4710151737        0.9058402076        3.4275603779
 O         3.7669378814       -1.5554143606        0.3815053847
 O         1.3886176928       -0.7295334581        1.7157199158
 C         3.6701817116       -1.6214636972        3.2563229366
 C         4.3720661453        0.7943496181        3.2396976042
 C        -0.0326160599        1.1013128580        3.1858010681
 C        -0.2940080841        2.2400559965        2.2332200514
 C         0.1487612748        3.7338577842        2.6478882414
 C         1.4006357704        4.1302480154        1.6164910831
 C         1.1516593541        4.7649196331        0.2919363348
 C        -1.1532714089        4.6090029597        2.3867131403
 C         0.6726939234        4.0267410202        4.0152698904
 O        -0.9377043375        2.0656964825        1.1870739630
 O         2.5509480446        3.6550401016        1.9236498611
 C         2.3889858669        4.8048060632       -0.5180031630
 C         2.5749420665        6.1344520211       -1.2231618671
 C         3.8233565291        6.2713501851       -2.1160471717
 C         5.0121778256        6.7067774176       -1.1318209578
 C         5.1319959525        8.2225456518       -0.9499487801
 O         1.8338824301        7.0688759951       -1.1068026176
 O         5.6898088963        5.8551751467       -0.5440094881
 C         4.2888860774        4.8929568916       -2.7761625985
 C         3.6319108121        7.2971599234       -3.3201523895
 H       -12.1214292929        2.3020237743        1.0427385482
 H       -13.0677224131        1.0954617986        1.9520369671
 H       -12.0675292774        2.2864079210        2.9237056309
 H        -8.1732837983       -1.4156609103        2.0354373898
 H        -8.3828193431        0.1800311344        1.6373117687
 H       -11.6961866953        0.5967890112        4.6641832354
 H       -11.1142586977       -1.0952417911        4.9952617856
 H       -12.5450160233       -0.8581096105        4.1158014978
 H        -9.9698021458       -2.2471171940        1.8359800232
 H       -11.1911420321       -2.5318988634        3.0676825183
 H       -11.5648107886       -1.9852557278        1.4540214251
 H        -6.9548957173        0.1902979109        4.0843190713
 H        -6.1300906344       -0.9425187794        3.2244223746
 H        -3.2995635610        0.9989380323       -0.7919848517
 H        -2.1878449486        0.2382489896        0.0876674932
 H        -4.2384857789        2.3617270037        0.2992181273
 H        -2.9254120877        2.4025333329        1.4595273908
 H        -4.5491603556        3.2339913888        1.8080953381
 H        -3.8184151716       -0.0744033585        3.5809236564
 H        -2.5717692892        1.0838378495        3.0112168002
 H        -3.9051538243        1.7655504822        3.8443312078
 H        -3.8693866678       -1.2064806524       -1.9114646769
 H        -3.7234766772       -2.0642336672       -0.3798033292
 H        -0.6779483991       -5.7980183616       -0.0164149899
 H        -1.1175660970       -6.0200676497       -1.7630816326
 H        -3.1245791517       -4.4616924393       -0.9596391938
 H        -2.7508011012       -4.8613905082       -2.5670574850
 H        -3.4641367538       -3.3661665169       -2.4472306040
 H        -1.5886343551       -2.4574264892       -3.8814284766
 H        -0.0158622310       -2.5712577542       -3.4463658522
 H        -0.8799714975       -4.0242859590       -3.8744604518
 H         1.7834345268       -5.7210260187       -0.4785409347
 H         1.0113761710       -7.2697937795       -0.9366737512
 H         3.3503349544       -4.7627304260       -5.6053345207
 H         1.9960051590       -4.2175035498       -4.5433098797
 H         3.7104626291       -6.9182032779       -1.1770716501
 H         4.5998518706       -7.8457772995       -2.3958622035
 H         2.9532014370       -8.3070597877       -1.9143131657
 H         3.3960748410       -8.3417717923       -4.5240299149
 H         1.9494344904       -7.5660985875       -5.0769846844
 H         3.5152051801       -6.8769695653       -5.3287092009
 H         3.0815405783       -2.4126199911       -5.6830039508
 H         4.6569149764       -2.9681734272       -5.0107083755
 H         5.6810717381       -1.2057176041       -1.2297145260
 H         5.8603950926        0.4614308853       -1.8858352637
 H         6.2895324164       -0.0011401059       -3.5580460610
 H         5.8418988084       -0.7179061631       -5.0516274001
 H         6.1752834556       -1.6743956770       -3.6816105715
 H         2.7852027370        1.2280843026       -4.0460441670
 H         4.4443151971        1.3495568634       -4.4766025095
 H         3.4356211467        0.4719300503       -5.5038268002
 H         6.1362771121        0.0572574187        0.7203636760
 H         5.2204954992        1.4969551142        0.2844543059
 H         1.6838543980        0.4890917399        4.2846759521
 H         2.1171562266        1.7902206675        3.4624394206
 H         3.7228204232       -1.5147778188        4.2899475831
 H         4.5117803904       -2.2067513354        3.0240822001
 H         2.8243449749       -2.2278207629        2.9753309212
 H         5.3980803671        0.7631056410        3.0875877094
 H         4.0444841167        1.8514672848        2.9614997900
 H         4.0284259330        0.6048078352        4.3601395876
 H        -0.2432334250        1.3713473295        4.2237547025
 H        -0.3877267228        0.1390379245        2.9086774599
 H         0.4388939169        4.2135317491       -0.2375381387
 H         0.6879850788        5.7434301171        0.3859257432
 H        -1.7102096320        4.6929874545        3.3549210406
 H        -1.8700018192        4.1582340224        1.6823482280
 H        -0.9195928666        5.6161147880        1.9664562777
 H         1.4188368395        3.3699448367        4.3253536284
 H         1.0676670526        4.9962392940        4.0667610361
 H        -0.2202130755        4.0217975228        4.6184401966
 H         3.3424942370        4.8001635277        0.0479669922
 H         2.4853689979        3.9336251040       -1.2561508272
 H         4.0844698468        8.5545694721       -0.9993016024
 H         5.5885973083        8.6660549817       -0.0731711728
 H         5.7178026444        8.5097088325       -1.8286063412
 H         4.8319886720        5.0502143643       -3.7445615339
 H         3.3970896513        4.1830948984       -2.9058682485
 H         5.0665186464        4.3608215297       -2.1494073809
 H         3.0495104840        6.6969981925       -4.0229349029
 H         2.8991047421        8.1460838140       -3.1752979452
 H         4.3919028131        7.6716715659       -3.8614354878
 Na        1.4846355758       -1.2138317952       -0.8365266453
