155

 C       -10.0262127038        2.6215855956        3.3123037605
 C       -10.5084709395        1.2586341202        2.7259660906
 C       -10.3961205782        0.0972873273        3.8565092156
 C        -8.8585575923       -0.0172638218        3.9899447261
 C        -8.1266653192       -0.6710678316        2.8821588068
 C       -11.0588801360        0.5147104384        5.1616108221
 C       -11.0876331692       -1.1258518085        3.2622944163
 O       -10.8102147594        1.0697693851        1.5501763356
 O        -8.2426159294        0.4847557933        4.9381795701
 C        -6.5520653665       -0.6249225554        3.0910829774
 C        -5.8347406696        0.2041162683        2.0077553904
 C        -4.5559909343        0.9079756665        2.3832680345
 C        -3.5232035924       -0.1315856236        1.9784807654
 C        -3.1590179175       -0.2384338967        0.4525780528
 O        -6.1841978693        0.1962163085        0.8335804336
 O        -3.0097960962       -0.8721270272        2.8091087016
 C        -4.4693869092        2.1305166990        1.4806534426
 C        -4.2940494227        1.4739500313        3.7550947925
 C        -2.6719565410       -1.7437274413        0.1634425595
 C        -1.6744139879       -1.8767929821       -0.9410706480
 C        -1.4394433312       -3.1688759285       -1.8137535700
 C        -0.3642493614       -3.9371293021       -0.9246988299
 C        -0.4212818405       -5.4776399310       -0.7467850895
 C        -2.6548136626       -4.1158869839       -1.9735270116
 C        -0.8749828696       -2.8086249888       -3.2602741536
 O        -1.0332209698       -0.8950841055       -1.3209130070
 O         0.5518215600       -3.2654627116       -0.4597050306
 C         0.9226871795       -6.0953264932       -1.1602198605
 C         1.0942837960       -6.1615684786       -2.6567490200
 C         2.3614393917       -6.8425727447       -3.1968886139
 C         3.3009594813       -5.5876821705       -3.5981179087
 C         2.9709191993       -4.7888618520       -4.8672824919
 O         0.3300226656       -5.5870950442       -3.3546690397
 O         4.2600761998       -5.3381232239       -2.9279587719
 C         2.9842720401       -7.7708138672       -2.1567699618
 C         1.9650701725       -7.7221476538       -4.4518646775
 C         3.3168886809       -3.2353700211       -5.0546615677
 C         2.8128551238       -2.2585946933       -3.9678262293
 C         3.1369627507       -0.6807301279       -4.0604535645
 C         3.4167749076       -0.0656383265       -2.7028708085
 C         4.8686538268       -0.3557788539       -2.2366864368
 C         4.4160812936       -0.5247012650       -5.0347877585
 C         1.9506800425        0.0367693927       -4.7148814785
 O         2.1265296643       -2.7081431776       -3.0771768619
 O         2.6328575244        0.5221319042       -1.9803530340
 C         5.0279943107       -0.2547601009       -0.6338795714
 C         4.0494734167       -1.2557188968        0.0386834225
 C         3.6135009100       -0.9043730637        1.4593488805
 C         2.3027407828       -0.0771396755        1.5262980188
 C         2.0465882366        0.9248323320        2.7422011046
 O         3.4887585105       -2.1849418599       -0.5923930748
 O         1.4470344127       -0.1939473646        0.6773630443
 C         3.1319911331       -2.2838845888        2.1156179823
 C         4.7499898627       -0.2878812305        2.3592598591
 C         0.6108312691        1.1562541316        3.0008737864
 C        -0.0360984447        2.3714181957        2.2306087789
 C         0.4246047606        3.8049839325        2.5812118173
 C         1.6397239012        4.3486036265        1.7305572664
 C         1.4978439489        4.9541783315        0.3753336156
 C        -0.8334790888        4.7405667387        2.2881577863
 C         0.7435164486        4.0446314590        4.1164202162
 O        -0.9749108394        2.1957356651        1.4743284769
 O         2.7982348410        3.9368510770        1.9668293286
 C         2.7486090123        5.7864840176       -0.0458332008
 C         2.5665302332        6.7952316473       -1.1378127185
 C         3.9178660023        6.9906604259       -2.0192671622
 C         5.1432371876        6.8414468759       -1.1477312523
 C         5.6090733734        8.1025767425       -0.4440605084
 O         1.5271517620        7.3381431411       -1.4402640697
 O         5.7997173891        5.7937833503       -1.1395110621
 C         3.9148319442        5.7180327931       -3.0265893337
 C         3.9895542742        8.2337722430       -2.8239584032
 H        -9.6058413652        3.2182684208        2.5567336447
 H       -10.8008933009        3.0269257390        3.9329913352
 H        -9.1612549901        2.4127639704        3.9484973357
 H        -8.4358930845       -1.6476397552        2.8653453019
 H        -8.5026110320       -0.1683321222        1.9723926689
 H       -10.5276060793        1.1609376111        5.7298282616
 H       -11.3096171491       -0.3287572428        5.7683764726
 H       -12.0323510211        0.8628550560        4.9987711050
 H       -12.1260609028       -1.1619949681        3.6718453300
 H       -11.1360564951       -0.9144138485        2.2212019511
 H       -10.6512592864       -2.1076137485        3.6431285558
 H        -6.4088650661       -0.3261442780        4.1443743080
 H        -6.1676818765       -1.5658565049        2.9291181007
 H        -4.0529104667       -0.0566750879       -0.0430976865
 H        -2.3005567490        0.3838937098        0.1937655879
 H        -4.4195782836        1.8408830558        0.4298411620
 H        -3.5096643392        2.6574264919        1.6834318951
 H        -5.3512075048        2.7002661033        1.7089338709
 H        -4.2083042943        0.6240251051        4.4534787639
 H        -3.4090180209        2.0908548906        3.9121405153
 H        -5.0290474677        2.2142722343        4.0436654489
 H        -3.5675709882       -2.3962213082        0.2675155754
 H        -2.0723599067       -2.0108668133        1.0623517982
 H        -0.4437175287       -5.6888213682        0.3388006287
 H        -1.3476818414       -5.9424114665       -1.0846861814
 H        -3.0602792785       -4.5312856172       -1.0253380589
 H        -2.4527426821       -5.0181773724       -2.6096802897
 H        -3.4500519286       -3.7120311090       -2.4682554391
 H        -1.4713691844       -2.0912730016       -3.8033799216
 H         0.1042236419       -2.2967094279       -3.2781248795
 H        -0.6288192798       -3.6548226536       -3.8211251127
 H         1.7387029048       -5.5385066934       -0.6362599386
 H         1.0529040729       -7.2194619950       -0.8321144418
 H         3.6120087063       -5.2448527733       -5.6062205003
 H         1.9625343644       -4.9806409288       -5.2799197336
 H         3.3580446874       -7.2579311763       -1.2675368252
 H         3.9268665750       -8.1770916523       -2.6503852936
 H         2.2400663844       -8.5634339232       -1.9172465835
 H         1.2672056922       -8.4671534153       -4.1139940270
 H         1.3413076447       -7.1674412461       -5.1802663413
 H         2.9421064890       -8.1694814093       -4.7883160425
 H         2.8759056450       -3.0020252957       -6.0434794562
 H         4.3902122991       -3.1043556972       -5.1823754285
 H         5.1050840720       -1.3623176571       -2.5643974973
 H         5.5958579605        0.3178161926       -2.8106035449
 H         4.7166234042        0.5217655032       -5.1254011917
 H         4.1443067284       -1.0292613430       -6.0034328432
 H         5.3459256478       -1.0117455430       -4.6577625030
 H         1.1835050763        0.3907298191       -3.9756821685
 H         2.4513972318        0.9382000321       -5.1327856184
 H         1.5202853904       -0.3856321861       -5.6007513305
 H         6.0708442776       -0.6071949549       -0.4255066171
 H         5.0239885630        0.8011068057       -0.2297112404
 H         2.5290900625        0.4569228022        3.5125725035
 H         2.5458920843        1.9188367937        2.3795294668
 H         2.7947057196       -2.1880002196        3.1631729991
 H         4.0030131396       -2.9699415713        2.0846730233
 H         2.2394570953       -2.6447322217        1.5053278290
 H         5.6777643871       -0.8340658242        2.3701359322
 H         5.0591062474        0.7119559728        1.9267381809
 H         4.3220192684       -0.0862953704        3.3601168571
 H         0.5056050180        1.3159723764        4.0674796492
 H         0.0706618357        0.2232067020        2.7675839053
 H         1.3841765309        4.1576111784       -0.3973850435
 H         0.6922666209        5.5813786693        0.2963841064
 H        -1.6352746552        4.4644576566        2.9499385583
 H        -1.1477224152        4.5868647813        1.2535769255
 H        -0.7185323425        5.8077934025        2.3222114602
 H         1.7186267434        3.6095019288        4.4004264655
 H         0.6231871947        5.0348029727        4.5062621178
 H        -0.1070722869        3.5582607553        4.6519147591
 H         3.1551278238        6.4276374326        0.8327542745
 H         3.5648765966        5.0611543328       -0.3012989945
 H         4.8530140574        8.7332122206        0.0418375710
 H         6.4331067195        7.8930883162        0.2405131378
 H         5.9419236877        8.7448538817       -1.2692628019
 H         4.7678785051        5.6910952067       -3.6515758987
 H         2.9983310189        5.6376563773       -3.5992103281
 H         3.9585658736        4.9246448722       -2.3474381870
 H         3.2475488746        8.2892214518       -3.6243340561
 H         3.9453114117        9.1804167094       -2.2112693196
 H         4.8826852312        8.3937732736       -3.2788432844
 Na        1.2757200795       -1.3315926348       -1.3540115442
