155

 C       -10.1403240886        3.6257648258        4.3242554356
 C        -9.9193698470        2.2411747638        3.7870485422
 C        -9.5227506833        1.0559015254        4.7291468378
 C        -8.1410648332        0.6395596393        4.4609070551
 C        -7.8492990557       -0.8302730521        4.0758081248
 C        -9.6651137823        1.3848562065        6.2889876763
 C       -10.6136873172       -0.0537276739        4.6412833823
 O       -10.1063837595        2.0035819120        2.6035502456
 O        -7.2393762115        1.4457566564        4.3860200496
 C        -6.3747888550       -0.9795210972        4.0376914506
 C        -5.6672052734       -0.3221859823        2.8423139237
 C        -4.3624628796        0.5513583139        3.1465979885
 C        -3.2408406078       -0.4117216063        2.7225153484
 C        -3.0457007340       -0.7552165511        1.1744207788
 O        -6.1285005293       -0.4289517658        1.7174588881
 O        -2.5288330283       -0.9815177668        3.5593851414
 C        -4.4777624808        1.9083930211        2.3832931938
 C        -4.1914462365        0.8784435475        4.6440214527
 C        -2.0822802685       -2.0377091466        1.0686836121
 C        -1.8505372705       -2.1569355548       -0.4038400367
 C        -2.3503542027       -3.5113953509       -1.1029816640
 C        -1.0003663563       -4.3880037561       -1.4042975425
 C        -1.1227173159       -5.8881309911       -1.4167541727
 C        -3.2766860783       -4.3600523945       -0.2369050138
 C        -3.0940569681       -3.1197117271       -2.4563344955
 O        -1.2265815214       -1.4056813009       -1.1255735704
 O         0.1112495030       -3.8891261868       -1.5111956238
 C         0.1788326912       -6.6274126955       -1.4252596109
 C         0.6244999561       -6.6577263708       -2.8668449502
 C         2.1476754323       -6.8821962956       -3.2304877177
 C         2.7305419334       -5.4958199681       -3.9452220445
 C         2.0558241904       -5.0632908795       -5.3221037272
 O        -0.2092491295       -6.5913907462       -3.8084251112
 O         3.4155511100       -4.7303721222       -3.3252431023
 C         2.9687971630       -7.2982507202       -2.0352155000
 C         2.1557581236       -8.0077470167       -4.3899768579
 C         2.7250758694       -3.8275175870       -5.7526678208
 C         2.5517542836       -2.6055678121       -4.7550965910
 C         3.1887935795       -1.1259829556       -5.1244270193
 C         3.0397248055       -0.1205697366       -3.8826274274
 C         4.2345081142        0.3133402604       -3.0932658287
 C         4.7022659627       -1.3017605421       -5.5439086521
 C         2.3574670402       -0.6940824659       -6.3924063129
 O         1.7934813565       -2.7253811933       -3.8076615149
 O         1.9114142234        0.0920452421       -3.4858349115
 C         4.1099316957        0.8303467586       -1.6390225809
 C         3.8857663148       -0.4171322471       -0.8742801427
 C         3.7066387736       -0.4536997647        0.7083248765
 C         2.2527273024       -0.3153936246        1.1734357329
 C         1.9844521097        0.6023451438        2.3222386540
 O         3.5933970217       -1.5140925706       -1.4211395988
 O         1.2656585617       -0.8521646911        0.6766462398
 C         4.1550081007       -1.8209603016        1.3519632907
 C         4.6812060744        0.7227412422        1.2044590501
 C         0.5508007958        0.7681071381        2.7281168474
 C         0.0106496977        2.2384051048        2.4128465218
 C         0.9563656371        3.5768893972        2.7271610187
 C         1.7890885290        4.0581371437        1.4354251903
 C         1.7613931691        5.4492308950        0.9516294190
 C        -0.0918678614        4.6807650687        3.1789568434
 C         1.9219262650        3.4647118123        3.8953543670
 O        -1.0270769254        2.3563470774        1.8389870788
 O         2.4867346453        3.2109741638        0.8856628642
 C         2.6014215448        5.5996746017       -0.3785284464
 C         2.9810429663        6.9956219510       -0.7251809358
 C         3.9375262001        7.2499056178       -2.0412189148
 C         5.5780012856        7.1061783801       -1.6897664197
 C         6.1957844314        8.3155528143       -1.1205859957
 O         2.6368632779        7.9724918964       -0.1040440638
 O         6.1611307727        6.0851406607       -1.8582673587
 C         3.6330788847        6.1893836823       -3.1042209657
 C         3.6952543207        8.6993990461       -2.4996375101
 H       -10.2824084622        4.4019705194        3.4917225409
 H       -11.1038373826        3.5441118314        4.8942315346
 H        -9.3834486040        3.9550922921        5.0247592953
 H        -8.1758701004       -1.7333374784        4.6230341966
 H        -8.2152937357       -0.9662772778        3.0364724304
 H        -9.2240566901        2.2868775088        6.7733123378
 H        -9.2831440957        0.5314399347        6.8000060317
 H       -10.7449048421        1.2021928429        6.4989371456
 H       -11.6027278311        0.2265546854        5.0808728581
 H       -10.8735077469       -0.2583760749        3.6489631975
 H       -10.2844376876       -0.9540096923        5.1531355033
 H        -5.9044694564       -0.8262038389        5.0523617203
 H        -6.0673586259       -2.0234276094        3.8245797730
 H        -4.0760616249       -1.0078036110        0.7788195938
 H        -2.8936016172        0.0726569374        0.4831558100
 H        -5.2216818034        1.8351720582        1.6135705911
 H        -3.5600662026        2.1646210216        1.8285227152
 H        -4.8726212080        2.6711191603        3.0095206473
 H        -4.2587014420        0.0506457673        5.3666054103
 H        -3.3471250343        1.4336976972        4.9794165620
 H        -4.9282388095        1.5870777442        5.0259227995
 H        -2.5175135630       -2.8836721820        1.5729112617
 H        -1.1852547087       -1.9629637830        1.6701350758
 H        -1.6383823891       -6.2386395465       -0.4545180559
 H        -1.7095243492       -6.3147633919       -2.2081924479
 H        -2.6376470867       -4.9069709059        0.4675926862
 H        -3.5854642431       -5.2414511846       -0.8150926600
 H        -4.0396349978       -3.7762862680        0.1529762073
 H        -4.0921661243       -2.7189126927       -2.2891094202
 H        -2.5198725734       -2.2306804810       -2.8650743557
 H        -2.8853757445       -3.9472606681       -3.2179444800
 H         0.9155500557       -6.0382278721       -0.7976441026
 H         0.2788250577       -7.6761563747       -0.8792000248
 H         2.0578883885       -5.8740340937       -6.0395865989
 H         0.9932739183       -4.9595516389       -5.0327607597
 H         2.6744379609       -6.7459532871       -1.1847778550
 H         4.0209766411       -6.8912130894       -2.0872886659
 H         2.8657580994       -8.3454522783       -1.7966622241
 H         2.1124654703       -9.0853475947       -4.1729903467
 H         1.3544811813       -7.8113124122       -5.0487305109
 H         2.9801229808       -7.8506786258       -5.0891489621
 H         2.3241131092       -3.4029384206       -6.6902393240
 H         3.7478190240       -4.0738282260       -5.9598780690
 H         4.8584214075       -0.6123481852       -3.0367441852
 H         4.8248736483        1.0630211895       -3.6486976466
 H         5.3542639922       -0.5094427003       -5.6219424454
 H         4.7011494472       -1.7305629057       -6.5224697568
 H         5.1918438585       -2.0351480060       -4.9387793296
 H         1.3062173005       -0.9311646857       -6.1081671410
 H         2.4870084053        0.3820875894       -6.5572780425
 H         2.7300479677       -1.2053940965       -7.2445572792
 H         5.0887214670        1.3502409922       -1.3639361502
 H         3.3544838692        1.5904701287       -1.5157832213
 H         2.5835824125        0.2081293372        3.1828232271
 H         2.6330639231        1.5821833395        1.9853852652
 H         3.9055776757       -1.8610401166        2.3695049386
 H         5.1979082071       -1.9492974295        1.2661517313
 H         3.6234455934       -2.5749035259        0.7766902286
 H         5.6940215915        0.7436935878        0.7051995885
 H         4.2585890723        1.6415920178        0.7992942570
 H         4.8510310640        0.7632395487        2.1879516472
 H         0.1900602720        0.7109102395        3.7340141388
 H        -0.1555281814        0.1455026755        2.2104288031
 H         0.7376227328        5.8404887407        0.7136511255
 H         2.1629226548        6.1184107636        1.6970487637
 H        -0.4604419455        4.4211756448        4.1553477866
 H        -0.9201257219        4.6569919361        2.4541729799
 H         0.3725683135        5.6467329678        3.0992685270
 H         2.0680547168        2.4308709201        4.2594037840
 H         2.8892167303        3.7908446083        3.5345630354
 H         1.5880709372        4.0044012003        4.8017107601
 H         3.5142101150        5.1234734179       -0.0729327391
 H         2.1744054662        4.9990690815       -1.1992096148
 H         5.5382730069        8.7582701696       -0.4366860049
 H         7.1753073845        7.9333935234       -0.6891170794
 H         6.3929573352        9.1003941721       -1.7870614683
 H         4.3026933334        6.3755259282       -3.9030511410
 H         2.6095332297        6.2316386100       -3.4514835834
 H         3.9646513102        5.2222821237       -2.7704922000
 H         2.9005557893        8.5431406842       -3.2341154306
 H         3.3483112855        9.4123912501       -1.6949650456
 H         4.6336023386        8.9743966973       -3.1162131383
 Na        1.0490005649       -1.4763162351       -1.7386962752
