155

 C        -9.2085970429        4.1666602553        4.0560747830
 C        -9.8883939501        2.7299486785        4.1410186190
 C        -9.3599636792        1.6852609516        5.2044778007
 C        -7.8033562926        1.2072043149        5.1249529694
 C        -7.3683434275       -0.3846552408        5.3359131238
 C        -9.4866243268        2.2894260119        6.6994817805
 C       -10.2258579794        0.3581323823        5.2066850249
 O       -10.7965905854        2.4009514349        3.3850892773
 O        -6.9383262839        2.0553202515        4.9605511665
 C        -5.8099831616       -0.5429586274        5.2954516328
 C        -5.2034774588       -0.4780827437        3.9233680826
 C        -4.0154748085        0.4488085575        3.5962486528
 C        -3.1214302210       -0.5361740560        2.8412384488
 C        -3.1234499206       -0.6501690509        1.3288179300
 O        -5.6509181663       -1.1407140467        3.0268847977
 O        -2.3764323488       -1.2517812448        3.4987793412
 C        -4.5257873111        1.6714945655        2.7538452420
 C        -3.4710253415        0.9990089212        4.9165096723
 C        -2.8587358893       -2.0863176330        0.8717515776
 C        -1.9020054301       -2.2615839290       -0.3602570830
 C        -1.8452082973       -3.5184346674       -1.3274602298
 C        -0.5754288780       -4.3018468957       -0.9206806426
 C        -0.6858296364       -5.8662950265       -0.7402470979
 C        -3.1511143529       -4.4044909905       -1.4199773724
 C        -1.7434942408       -2.8841903493       -2.6967329772
 O        -1.1796259806       -1.2882706930       -0.5889244732
 O         0.5389306216       -3.8017451790       -0.7504831071
 C         0.6484379100       -6.5725761309       -1.2382134190
 C         0.6043891127       -6.5792993294       -2.7982229689
 C         1.7725812835       -7.1773662567       -3.6930933308
 C         2.4334679813       -5.8876384492       -4.2788400720
 C         1.6580703571       -5.0461822289       -5.2901457389
 O        -0.3681689049       -6.1384262703       -3.3271539556
 O         3.5571970829       -5.5387130640       -3.8679604519
 C         2.7402605624       -7.9793985356       -2.8917418871
 C         1.1649052752       -8.0785407081       -4.8447154082
 C         2.3811646435       -3.7170162006       -5.5944741176
 C         1.8572484546       -2.5096802156       -4.8394378238
 C         2.2565569574       -1.1395339831       -5.4200271717
 C         2.2079503323       -0.1857577063       -4.1345094664
 C         3.5019063760        0.5475124980       -3.6280737189
 C         3.5191796669       -1.1942906330       -6.2727525166
 C         1.0718751066       -0.6537550202       -6.3250805388
 O         1.3631933163       -2.6933225543       -3.7378004011
 O         1.1299313394        0.1609073681       -3.6808596133
 C         3.3971344586        0.7548815200       -2.1048173999
 C         3.5619819286       -0.6242238831       -1.4570763729
 C         3.7549137490       -0.6658751033        0.1375905023
 C         2.4030556466       -0.2053282387        0.7932175061
 C         2.5080794513        0.3236921199        2.2282463191
 O         3.4101670018       -1.6679463828       -2.1202523317
 O         1.3465375337       -0.1873610832        0.1483242151
 C         4.0443745316       -2.1704665753        0.6386676449
 C         4.9691256378        0.1956411064        0.4999208097
 C         1.1944847485        0.6140064784        2.8441645905
 C         0.3714794313        1.8231517803        2.2304183945
 C         0.9927413137        3.3151209029        2.2997329992
 C         2.0228533575        3.5994258973        1.1347016992
 C         2.8723741413        4.9066174293        1.0540508059
 C        -0.1896252359        4.3914165038        2.2403875295
 C         1.6550558198        3.4232467893        3.7118317800
 O        -0.6828246362        1.6185246221        1.7091190250
 O         2.1868114220        2.8109562253        0.2260449088
 C         2.7836926260        5.4389083176       -0.3924492572
 C         3.2868346185        6.9393994942       -0.4684258142
 C         3.9052235478        7.4443187996       -1.8067824735
 C         5.5238993507        7.2990629471       -1.8394048083
 C         6.3622072717        8.6004500812       -1.6314810770
 O         2.9135110742        7.6076389349        0.4886744102
 O         6.0031371783        6.2698847752       -2.2551499566
 C         3.2729165564        6.6265936481       -2.9883527447
 C         3.4965669157        8.9960447936       -1.9733528211
 H        -9.4605778215        4.8026770071        3.2392616542
 H        -9.4582121931        4.7902053395        4.9440510070
 H        -8.1229670136        4.1583799933        3.9992314126
 H        -7.7086187587       -0.6650101526        6.2876788840
 H        -7.8004589603       -1.1970922573        4.7214486516
 H        -8.7782690068        3.0477513175        6.8865614832
 H        -9.3506103699        1.5041993976        7.4250528177
 H       -10.4728850374        2.6048754915        6.8010620778
 H       -11.2582461972        0.6402432113        5.4809306274
 H       -10.4094663477       -0.2783930679        4.2661927870
 H       -10.0175726752       -0.2934476956        6.0401074104
 H        -5.3387300245        0.2186749860        5.9748713602
 H        -5.6031971870       -1.5251781371        5.6807892988
 H        -4.1276493970       -0.4095015319        1.0256219952
 H        -2.3574056827        0.1132206234        0.9906165359
 H        -5.1786687630        1.4592029176        1.9048949229
 H        -3.7299733904        2.2931703660        2.3811514760
 H        -5.0655164981        2.4461256591        3.3927856791
 H        -3.1900592073        0.2460654128        5.6257729462
 H        -2.5548914349        1.6393469455        4.8179052707
 H        -4.0997435303        1.5924877245        5.6059191791
 H        -3.8039642887       -2.6385050740        0.9097636404
 H        -2.1921982893       -2.5253721269        1.6413776102
 H        -0.9330380864       -5.9422032588        0.3487086366
 H        -1.5172419394       -6.1927950396       -1.3407255198
 H        -3.3289249303       -4.9738276215       -0.5098002270
 H        -3.0747562881       -5.1381151228       -2.1592281961
 H        -4.0143253218       -3.7106282579       -1.6302307677
 H        -2.7323582756       -2.4628601914       -3.0057607208
 H        -0.8857488807       -2.2453422040       -2.6792695084
 H        -1.7024283423       -3.6439793218       -3.4158479821
 H         1.5019488788       -6.0880220342       -0.7714071882
 H         0.5791878504       -7.5480472508       -0.8574997385
 H         1.5132139890       -5.7051365227       -6.1289960315
 H         0.7167757143       -4.7803355710       -4.7459330541
 H         3.0255730618       -7.6652234666       -1.9023778695
 H         3.5963250315       -8.0626035845       -3.4337045352
 H         2.2724333309       -8.9208304986       -2.7020613690
 H         0.7907279436       -9.0720350237       -4.5135043294
 H         0.3513741065       -7.7599509534       -5.5624556513
 H         2.0136854102       -8.2550388832       -5.5483667150
 H         2.4784395242       -3.5434066605       -6.7012504859
 H         3.3807903004       -3.7866676724       -5.1631595974
 H         4.3777955905        0.0258808934       -3.8257248270
 H         3.4524373541        1.4181964689       -4.3336539299
 H         3.7110257986       -0.2256230584       -6.7134685515
 H         3.4449427521       -1.8175588636       -7.1436286465
 H         4.3350695248       -1.4886368340       -5.6815142097
 H         0.2408177226       -0.6183194433       -5.6228935831
 H         1.2594060427        0.2767957251       -6.8385946857
 H         0.9049387189       -1.4449904674       -7.0597950250
 H         4.1403140954        1.4340588975       -1.6608523060
 H         2.4709745476        1.1419092796       -1.6697182783
 H         3.1457464924       -0.4689949598        2.7483519189
 H         2.9979681498        1.2449423870        2.1295757828
 H         4.4962199186       -2.2381183008        1.6137472696
 H         4.7681010011       -2.6018904646       -0.0166635664
 H         3.1839364461       -2.7375262163        0.6037069515
 H         5.6589635375        0.1383505440       -0.3071931666
 H         4.7800029259        1.2578197157        0.7443946257
 H         5.5872675668       -0.3534982723        1.3101154248
 H         1.2694728847        0.9120162302        3.9153500893
 H         0.5729104639       -0.3586056171        2.7300062705
 H         2.5713374540        5.6291711349        1.7370392095
 H         3.9857285337        4.8487546560        1.2454081581
 H        -0.6439851100        4.3860986876        3.2361029459
 H        -0.8504131745        4.1455406941        1.4397443415
 H         0.2365302648        5.3956283626        2.0119788195
 H         1.6313092769        4.4816229401        4.0762932563
 H         1.0869951977        2.7427131459        4.3837170821
 H         2.6369637661        2.8731115959        3.6610319584
 H         3.3944608514        4.7855435926       -1.0915268653
 H         1.7310346837        5.2609983540       -0.7011559723
 H         6.1765482500        9.1500476563       -0.6861987406
 H         7.3376901765        8.3258933925       -1.5323462059
 H         6.2472962625        9.2524662815       -2.5181980698
 H         3.6989334184        6.9753987209       -3.9549730721
 H         2.1762986107        6.5958835901       -3.0773811341
 H         3.6171655951        5.5531661675       -2.8841179101
 H         2.4421383449        8.8583831357       -2.1121919792
 H         3.7633798101        9.4620944207       -1.0275314750
 H         3.9834558391        9.5387007001       -2.7498584524
 Na        0.9692834195       -1.5617084694       -1.7834521684
