155

 C        -8.4095090690        3.2034297024        3.4321783125
 C        -9.4026327249        2.7074072034        4.4773375865
 C        -8.9628973095        2.0151397709        5.8478896855
 C        -7.4634086041        1.6668049677        5.7665397256
 C        -7.0101532306        0.3450644058        5.3052995187
 C        -9.2733015699        3.1507606289        6.8766006629
 C        -9.8833704616        0.8388369877        5.9002766319
 O       -10.6093451572        2.8616710826        4.2758436868
 O        -6.6787867126        2.5737192180        6.0158789680
 C        -5.4977312386        0.0917600875        5.4907900905
 C        -4.8364764253       -0.3894997500        4.1742349053
 C        -3.4063698080        0.1402600106        3.8477543646
 C        -2.6967043937       -0.8446206522        2.8237940193
 C        -3.2070080058       -0.6853782729        1.4107543534
 O        -5.4274045617       -0.9188593374        3.2582529683
 O        -1.8588427476       -1.6549790721        3.2019222128
 C        -3.6802123805        1.4825345981        3.2279345677
 C        -2.4208052556        0.4757671235        5.0055778164
 C        -3.2395673084       -2.1335918520        0.7417229256
 C        -2.1546616243       -2.3608467844       -0.3893926062
 C        -1.9831587178       -3.7989413275       -0.9701343120
 C        -0.4824795978       -4.1514800030       -0.6719273781
 C        -0.1330681084       -5.6669833840       -0.4417128616
 C        -3.0566851153       -4.8535545825       -0.5010245596
 C        -2.0515495516       -3.6539814792       -2.5672941484
 O        -1.6947987650       -1.4539735810       -1.0169684145
 O         0.4267974379       -3.3486164350       -0.7012243835
 C         0.9870769965       -6.3202029494       -1.3690479179
 C         0.4362698326       -6.5396575069       -2.7775151761
 C         1.3274476977       -7.0800189347       -3.9877187353
 C         2.1395937510       -5.8213975653       -4.4417400661
 C         1.4952740860       -4.9265984539       -5.4958620209
 O        -0.7609030437       -6.3988224376       -2.9081098081
 O         3.1478186355       -5.4219941733       -3.8572694849
 C         2.2497956400       -8.2637542841       -3.6408116648
 C         0.3631754096       -7.4806004501       -5.1195876278
 C         2.1049577548       -3.5437833004       -5.5778245884
 C         1.4160042627       -2.5365066780       -4.7294470396
 C         1.3133633553       -1.0076662930       -5.2662953275
 C         1.6366737711        0.0436982373       -4.1061956813
 C         3.1373049105        0.4682803392       -4.0893281642
 C         2.3237831655       -0.8540540435       -6.5242201799
 C        -0.1477156125       -0.8111953491       -5.7400999910
 O         1.0184270348       -2.8308251297       -3.6116839226
 O         0.7348269863        0.4728865461       -3.4284655579
 C         3.6185313199        0.5184876724       -2.6131061490
 C         3.6449127790       -0.7212605647       -1.7525822624
 C         4.0641739307       -0.5857946509       -0.2521723930
 C         2.6300782121       -0.2824849782        0.4930202714
 C         2.7403234576        0.0177014769        1.9915550862
 O         3.3367542812       -1.8120863310       -2.2316259865
 O         1.5665175094       -0.5213042378       -0.0833680908
 C         4.6123375279       -1.9479884581        0.3022538923
 C         5.0716551006        0.4716420688        0.1226256952
 C         1.4295520117        0.4671923759        2.5501814912
 C         0.6061958080        1.5203574965        1.8610736344
 C         1.0077493083        3.0451161096        1.8966440966
 C         2.2394732261        3.2701586632        0.9555250682
 C         3.0737767041        4.6470578406        0.8563418196
 C        -0.1509703457        3.8712807657        1.3165519822
 C         1.2763556514        3.4633529619        3.3836122810
 O        -0.4496380551        1.2913423392        1.3742202265
 O         2.6311082279        2.3658370305        0.2372299042
 C         2.6504237163        5.5703264836       -0.3321660952
 C         3.3884103159        6.9453612601       -0.2981982459
 C         3.8197460940        7.5551355817       -1.6499911869
 C         5.3145452344        7.2199506073       -2.1412178562
 C         6.4281187833        8.0274065127       -1.4119439260
 O         3.5752361716        7.5030463700        0.7427617007
 O         5.6613417812        6.3494198087       -2.9030574529
 C         2.9047617798        7.0939385615       -2.7860088938
 C         3.6479890085        9.0827465144       -1.6275335717
 H        -8.8284477633        3.3921662546        2.4313591015
 H        -7.7548019076        4.0705399923        3.7165955458
 H        -7.6338302007        2.4500694819        3.2876745930
 H        -7.5253282749       -0.4178471344        5.9502008222
 H        -7.3375952869        0.2528716911        4.3048302955
 H        -8.8299751696        4.0956197867        6.5196121738
 H        -8.9667812881        2.8848297649        7.8471387115
 H       -10.3319514737        3.3473155872        6.8451970942
 H       -10.9521520125        1.1746702375        6.0060696978
 H        -9.7190101749        0.3562175982        4.8415180689
 H        -9.7310494026        0.0324683342        6.5823875521
 H        -5.1411416217        1.0690808999        5.7805864304
 H        -5.3931272204       -0.3844250413        6.4772850171
 H        -4.2919345470       -0.2820447591        1.3832646180
 H        -2.3545913199       -0.1727732552        0.9825375699
 H        -4.4208392577        1.4595196455        2.4402859306
 H        -2.7865044447        1.9357980799        2.7753912342
 H        -3.9791868077        2.2266642579        4.0189606723
 H        -1.7840210959       -0.3539913823        5.2966537529
 H        -1.6354496256        1.2170280740        4.8150595132
 H        -2.9584994350        0.7043782626        5.9871748916
 H        -4.0491271061       -2.2868941326        0.0520460833
 H        -3.2371116328       -2.9724014368        1.4182413810
 H         0.2193326365       -5.7639018542        0.6166409721
 H        -1.0470894539       -6.1703732026       -0.3585223405
 H        -2.9475545143       -5.2490005109        0.5460639170
 H        -3.1635768265       -5.5996161108       -1.1971929707
 H        -4.1094309622       -4.5203961806       -0.4420956830
 H        -2.9477990924       -2.9875922773       -2.7264506393
 H        -1.2375868955       -3.0403062055       -2.9517068780
 H        -1.9853607403       -4.6075094008       -3.0242410962
 H         1.8537700565       -5.6624908536       -1.2306169341
 H         1.2875894033       -7.1844332229       -0.7274227316
 H         1.4098625676       -5.4256909147       -6.4820235145
 H         0.4844517717       -4.7593164282       -5.1068358073
 H         2.8672770457       -7.8791294497       -2.8367122350
 H         2.7118039273       -8.6805962875       -4.4745467277
 H         1.6698330089       -9.0907688178       -3.2680568683
 H        -0.2146231592       -8.4359501871       -4.8983444326
 H        -0.4876208297       -6.7290842179       -5.0812669451
 H         0.8688250277       -7.5982762235       -6.0874948844
 H         2.1420538175       -3.2064655753       -6.5956020829
 H         3.1814203432       -3.6078271763       -5.2216335723
 H         3.7624913491       -0.1985916689       -4.7107113028
 H         3.1537550486        1.4259651690       -4.5346394074
 H         2.2908815383        0.0658178530       -6.9895899896
 H         1.9835773782       -1.6316462504       -7.1469717602
 H         3.3103012457       -1.1151474763       -6.2877186937
 H        -0.7978690382       -0.8004539249       -4.8055898968
 H        -0.1668969178        0.2227753202       -6.0926623299
 H        -0.5002165503       -1.5323132986       -6.4408375933
 H         4.6705579375        0.7911694520       -2.4679694748
 H         2.9428651800        1.1662413839       -2.1080929149
 H         3.3122906145       -0.9094494189        2.4471237040
 H         3.4308359620        0.8746243237        2.2367051816
 H         5.3247798205       -1.8440953826        1.1136970272
 H         5.1152869889       -2.4415148590       -0.5221353433
 H         3.8947633722       -2.6396492337        0.6842169553
 H         6.0597060705        0.2001970280       -0.2959243023
 H         4.7838063560        1.4320061021       -0.2385142731
 H         5.2372226421        0.6780522316        1.2210972039
 H         1.6181843934        0.6952060019        3.6277875858
 H         0.9037985170       -0.4998817918        2.5843888534
 H         2.9961114498        5.3026320476        1.7950667418
 H         4.0732568762        4.4013490238        0.6064967737
 H        -1.0222057834        3.9665129582        1.9675884262
 H        -0.4793466000        3.3165987131        0.4644599588
 H         0.1435967831        4.8980830291        1.1350809925
 H         1.7045686375        4.4816746227        3.5671314098
 H         0.3547799625        3.4299107914        4.0657641730
 H         1.9944370736        2.7259310862        3.8776162081
 H         2.8706546419        5.0130481397       -1.2375209224
 H         1.5954381321        5.9560092384       -0.3971631619
 H         6.8615534482        7.4589486613       -0.5685731097
 H         7.1738256745        8.3096207626       -2.0583184189
 H         6.0001647017        8.9095934136       -0.8898922954
 H         3.0445583334        7.7195864267       -3.6124242345
 H         1.8541749575        7.0941060368       -2.6485392235
 H         3.0947454362        6.0763451279       -3.0939303010
 H         2.6031959970        9.2826021469       -1.5833507714
 H         3.9310284807        9.5066917315       -0.6962515448
 H         3.9881752120        9.5775598157       -2.5531736340
 Na        0.3754242050       -1.3038941694       -1.9676999882
