155

 C        -8.2738372224        3.0013252636        3.4717682006
 C        -9.4545991654        2.6878380487        4.4206877406
 C        -8.8864082296        2.1040886542        5.9334718374
 C        -7.3965052886        1.8463045924        5.8299152029
 C        -6.9891314856        0.3985568015        5.5117123889
 C        -9.1482910953        3.1533910709        6.9690831555
 C        -9.8367458424        0.9489230457        6.2788940324
 O       -10.5768465971        2.9895404229        4.1038256172
 O        -6.5504121903        2.6450545261        6.1155396830
 C        -5.3861852303        0.3073407077        5.4692016482
 C        -4.7115199879       -0.1899767835        4.1154356516
 C        -3.2114894222        0.2096409530        3.8052029502
 C        -2.5952692940       -0.8912297928        2.8814950347
 C        -2.9110820779       -0.8566075721        1.3836044995
 O        -5.2745721795       -0.8888147332        3.2664913179
 O        -1.7726680274       -1.7103810151        3.2495756686
 C        -3.2423389736        1.6112653098        3.1301004028
 C        -2.3907566154        0.1256570699        5.0900881890
 C        -3.3091633329       -2.1441593870        0.7882295109
 C        -2.2703257194       -2.4553433633       -0.3543401435
 C        -2.1186882528       -3.9056477269       -0.9850895151
 C        -0.5084983913       -4.3635224577       -0.6382617487
 C        -0.1126434630       -5.8128650432       -0.2986557569
 C        -2.9852140929       -4.9937837805       -0.3760833279
 C        -2.2019760297       -3.8332114033       -2.5572644793
 O        -1.6311082400       -1.4571191881       -0.8017036173
 O         0.4324090886       -3.5761227959       -0.7491097961
 C         0.7760073396       -6.3051971494       -1.5345746755
 C         0.1337033375       -6.7251258245       -2.8098412673
 C         1.1788487444       -7.0453555824       -3.9492046254
 C         2.0382970178       -5.8055676947       -4.2989941014
 C         1.3865586247       -4.8454014534       -5.3528738827
 O        -1.0771026691       -6.6939631344       -2.8666305707
 O         3.1129991827       -5.5632764364       -3.8582939229
 C         2.2640542374       -8.0877104968       -3.4224738072
 C         0.4010794087       -7.5618272996       -5.1838963668
 C         2.0649926240       -3.4320887174       -5.6529885366
 C         1.2796859692       -2.3382234739       -4.8377364048
 C         1.2773974782       -0.8408718791       -5.3836285761
 C         1.7710705696        0.0302819827       -4.1560976320
 C         3.2606970601        0.4701805530       -4.1239158282
 C         1.9941804696       -0.6102057156       -6.8049052684
 C        -0.2762265814       -0.6158549360       -5.6157218444
 O         0.8988408864       -2.6344823206       -3.7269990794
 O         0.9240803203        0.3571367015       -3.3157038973
 C         3.7237088619        0.6008464173       -2.7190530924
 C         3.6131601155       -0.6641881237       -1.8325075445
 C         4.0583233794       -0.6073755405       -0.3413589041
 C         2.6866937940       -0.2748723326        0.4195771799
 C         2.7837473641        0.2084595603        1.9055422438
 O         3.1927610305       -1.6454921474       -2.3789872213
 O         1.6523906819       -0.3311257359       -0.1886616030
 C         4.5791106810       -2.0221111882        0.0668518002
 C         5.1229794069        0.5369012164       -0.1748572034
 C         1.2947492871        0.3858786607        2.5200803360
 C         0.5205269180        1.5246830936        1.8646824194
 C         0.9747766854        3.0738267493        1.8381755858
 C         2.2758786470        3.2866312866        0.9414710806
 C         3.0107312300        4.6607426923        1.1065207801
 C        -0.1516351274        3.9658522724        1.2149173968
 C         1.3215629309        3.5618083399        3.2661897659
 O        -0.5604418174        1.2614858688        1.3435034862
 O         2.6333854568        2.5312956421        0.0356826135
 C         2.8612158057        5.4862139566       -0.1945131810
 C         3.4371097728        6.8691482516       -0.3498661594
 C         3.6727070490        7.5417554547       -1.7015780120
 C         5.2355306297        7.1859943185       -1.9807181910
 C         6.3678279485        7.7032826861       -1.1797825429
 O         3.9443726962        7.4565188418        0.6124795380
 O         5.3929525582        6.4209629357       -2.9355860455
 C         2.8347911321        6.9705772461       -2.8165188146
 C         3.4913292979        9.0614632706       -1.5292877332
 H        -8.5912893431        3.5174487319        2.5697343717
 H        -7.6741452637        3.6900780665        3.9758405008
 H        -7.5368428624        2.2745023449        3.1560737529
 H        -7.3738213365       -0.2917866014        6.2474748210
 H        -7.3404943765        0.1152718926        4.4415465345
 H        -8.6387303801        4.0727621969        6.7196975018
 H        -8.9440116668        2.7490693106        7.9688990697
 H       -10.2139697449        3.3591395106        6.9580910411
 H       -10.8193735985        1.3669579088        6.1680507810
 H        -9.7136297275        0.0519270712        5.8384850108
 H        -9.7427269369        0.7914641113        7.3816766210
 H        -5.0891748558        1.2765603086        5.9719542896
 H        -5.0687433305       -0.3833577100        6.2724610406
 H        -3.7262407142       -0.2547410193        1.2450365821
 H        -1.9457223093       -0.5814574382        0.8807147319
 H        -4.0899215518        1.6530758670        2.3816672081
 H        -2.3251631656        1.9021378581        2.5698043849
 H        -3.2735010840        2.3916007683        3.8550151614
 H        -1.9757040502       -0.8458686075        5.4359038512
 H        -1.4769186465        0.7008093468        4.9738588398
 H        -2.8987201532        0.4474812462        5.9482551822
 H        -4.3362714986       -2.1963798986        0.3653683929
 H        -3.1389317013       -3.0033890892        1.4535176801
 H         0.3965694063       -5.7690756079        0.6262219623
 H        -1.0439378475       -6.4307011704       -0.0326579809
 H        -2.9699203416       -5.0421345290        0.7139996954
 H        -2.8427459019       -6.0374623238       -0.8263038117
 H        -4.0275360217       -4.8483244968       -0.6229431466
 H        -3.1787051236       -3.9963551784       -2.8019282678
 H        -1.9048702847       -2.8810622886       -2.9320472381
 H        -1.5243748913       -4.6281968303       -2.9357642596
 H         1.6275634361       -5.6027918987       -1.6739992835
 H         1.2593553532       -7.2182720985       -1.1385387834
 H         1.3635889582       -5.4929305533       -6.2743527272
 H         0.2951438756       -4.6500571691       -5.2112009364
 H         2.9795855503       -7.5018350298       -2.9053079388
 H         2.7837863581       -8.4567966302       -4.3818606990
 H         1.9556034773       -8.9468545947       -2.8382575117
 H        -0.1698754151       -8.4433495491       -4.9673776199
 H        -0.2895004740       -6.7921556917       -5.3773714166
 H         1.0866391330       -7.6767805540       -5.9906837938
 H         2.0431692585       -3.2321503984       -6.7630975431
 H         3.1139590102       -3.4219426596       -5.3887406857
 H         3.8542230833       -0.1847964031       -4.7493569818
 H         3.4168621028        1.5193055869       -4.5090705847
 H         2.1884120046        0.4971833958       -6.6804145243
 H         1.3379183621       -0.7273639887       -7.7013712422
 H         2.9884114088       -1.1476110170       -6.8129961045
 H        -0.7910646973       -0.6248602986       -4.7048902987
 H        -0.4669496187        0.3038397255       -6.1433248858
 H        -0.6338582267       -1.5170136250       -6.1599906543
 H         4.7535172463        0.9014527411       -2.7005351421
 H         3.0410298209        1.3661159232       -2.2854418228
 H         3.2273199580       -0.5428695443        2.4090012212
 H         3.4241969862        1.0506279678        2.1470895085
 H         5.1536749559       -1.9950064001        0.9502849806
 H         5.1447702650       -2.5006644849       -0.6900064003
 H         3.7407950348       -2.6495602628        0.3611895079
 H         5.8429186279        0.5157368254       -0.9984877318
 H         4.6196455172        1.4922089939       -0.0669720511
 H         5.7353264533        0.4688992308        0.6380327192
 H         1.5079681306        0.4329267205        3.5565893883
 H         0.8998191472       -0.5769140123        2.3316972368
 H         2.5171449066        5.2380452072        1.8335831937
 H         4.0993120146        4.4569862079        1.2620008412
 H        -0.9320993890        4.1962788899        1.9338180957
 H        -0.5940084736        3.4942014566        0.3078685507
 H         0.1918791795        4.9936484118        1.1078328265
 H         1.1794531533        4.5991651985        3.2567457834
 H         0.6658313665        3.2410033319        4.0310823891
 H         2.2656871642        3.3677698866        3.6656980664
 H         3.1953809897        4.9154086173       -1.0589729210
 H         1.8399210700        5.7179220179       -0.4596960061
 H         6.8587395900        6.8070263113       -0.8350713532
 H         7.1389239027        8.1585354851       -1.9170348935
 H         6.1714002860        8.2247092025       -0.2696442053
 H         2.9663904208        7.5125111368       -3.7962103036
 H         1.7317792870        7.1511007310       -2.6812629405
 H         2.8442513027        5.8919298394       -2.9854272393
 H         2.5817810489        9.5819805439       -1.2936268819
 H         4.1531950109        9.4108477668       -0.7710623093
 H         3.7247844527        9.4720648478       -2.5823441910
 Na        0.2949554336       -1.4160464536       -1.8108104849
