155

 C        -8.0172151759        3.5924862026        3.7167051117
 C        -8.7002743516        2.5293970314        4.5779742543
 C        -8.1946093678        2.5676264320        6.1284891382
 C        -6.5806024344        2.3746250117        6.0978736660
 C        -6.1840922635        0.8228786632        6.2441451542
 C        -8.4069024544        3.9811298594        6.7615373551
 C        -8.8759004125        1.5483727348        7.0796047684
 O        -9.6056882044        1.7673915145        4.2552737889
 O        -5.7435418599        3.2190139175        6.0255959143
 C        -4.7128247807        0.3918238461        6.1931830213
 C        -4.1426507841        0.1577934250        4.8465428651
 C        -2.5330662724       -0.0219932036        4.7421582748
 C        -2.3779626069       -1.4496702006        3.9006412182
 C        -2.3598678115       -1.4338762875        2.3686322873
 O        -4.8128563394        0.2800773143        3.8437173635
 O        -2.2704829324       -2.5110587741        4.4942524874
 C        -2.1107817029        1.2562279552        3.8670877347
 C        -1.7428129142       -0.1401553210        6.1456959298
 C        -2.5624509513       -2.7763124486        1.7635158191
 C        -2.0870165280       -2.8113230423        0.3162282625
 C        -2.3311722356       -4.0172107986       -0.6338060012
 C        -0.8916522187       -4.6629450210       -0.9372506472
 C        -0.6376081724       -6.1251220557       -0.6394849731
 C        -3.2794678849       -5.1044627526       -0.0546829468
 C        -2.9127384500       -3.5224160698       -1.9780706232
 O        -1.2490459335       -2.0236451155       -0.0462651517
 O        -0.0286879537       -3.9796304355       -1.4063673498
 C         0.6284757214       -6.5903450679       -1.5229828447
 C         0.1300950050       -6.6605285916       -3.0018050499
 C         1.2112746951       -6.7185346736       -4.2023894693
 C         1.3495327303       -5.2180778854       -4.7232220947
 C         0.1364105076       -4.7618633516       -5.6929590939
 O        -1.0961705609       -6.6747837227       -3.3129067295
 O         2.4113044105       -4.6488927381       -4.6439197945
 C         2.6156179262       -7.1966455669       -3.7008284579
 C         0.5974613326       -7.7115211604       -5.2324436462
 C         0.3952290853       -3.3491940141       -6.3816228209
 C         0.1124158927       -2.2257397847       -5.4259500440
 C         0.4232894836       -0.7634552434       -5.7523649415
 C         0.9965402668       -0.1584556787       -4.4026846781
 C         2.5056393664        0.0588569551       -4.3761193330
 C         1.4335126330       -0.7360056662       -6.9488868945
 C        -0.9053646888       -0.0901022428       -6.1711861119
 O        -0.4308975547       -2.5337006426       -4.3662562109
 O         0.2971715385        0.1111734716       -3.4625461124
 C         3.0150428820        0.3347332877       -2.9570574598
 C         3.0465857382       -0.8636458537       -2.0780234922
 C         3.8942246356       -0.9048750968       -0.8038103270
 C         2.6901859921       -0.7294459314        0.3944730062
 C         2.9250837841        0.1584559744        1.6185579797
 O         2.5170051916       -1.8958229168       -2.4311288666
 O         1.6011601215       -1.2288071324        0.2123307923
 C         4.5303552838       -2.2942734205       -0.7122507623
 C         4.9544960659        0.2002134195       -0.5908041442
 C         1.5842121655        0.5726651736        2.2622122129
 C         0.8929973249        1.6462088324        1.4483477065
 C         1.1188484441        3.1436333230        1.7816956065
 C         1.9359252988        3.6820646852        0.5677560376
 C         1.9072567319        5.1575862614        0.1915466246
 C        -0.3772398393        3.8488229079        1.8648049637
 C         1.9161264523        3.4943362811        3.0449020843
 O         0.1836731265        1.3714413379        0.5190441597
 O         2.6719393448        2.9019039516       -0.0005442894
 C         2.9889559432        5.6056652916       -0.7369562454
 C         3.7909886436        6.8919540913       -0.3665822503
 C         4.2756645887        7.7979727998       -1.5153653916
 C         5.1140350582        6.9830880505       -2.5363015562
 C         6.5097356537        7.5759716585       -3.0815326207
 O         3.9574619273        7.2144417847        0.7723978299
 O         4.8997003839        5.8215778968       -2.7518312542
 C         3.0409126290        8.3650421609       -2.3380350586
 C         5.1049277189        9.0386180545       -0.9734082665
 H        -8.7836470991        4.1450247992        3.0821622057
 H        -7.3286230670        4.2786297349        4.1275086681
 H        -7.4910979113        3.0188300535        2.9062617278
 H        -6.5494522669        0.4885938564        7.2897806000
 H        -6.7747727843        0.1556657058        5.5229548648
 H        -7.8880135206        4.7642058525        6.2574686394
 H        -8.0356252086        3.9060965025        7.8004515896
 H        -9.3894137490        4.3824793897        6.8170155470
 H        -9.8990822926        1.9343198446        7.2645048843
 H        -8.8049582401        0.6042230939        6.6446380943
 H        -8.3227174781        1.5810423212        8.0669533925
 H        -3.9798954552        1.1145543544        6.7207004717
 H        -4.5847533836       -0.6160830398        6.6485757823
 H        -2.9856771285       -0.6423537073        2.0176913488
 H        -1.4192828027       -0.9736471020        2.0930776404
 H        -3.0640373700        1.6500783188        3.4545592800
 H        -1.4654931046        0.9190905211        3.0608256173
 H        -1.6582689351        1.9652664793        4.5777531601
 H        -1.8213776728       -1.2430065814        6.3727993710
 H        -0.6424485856        0.0538899420        5.9148599871
 H        -2.2622912417        0.4515381112        6.8981142878
 H        -3.6007071119       -3.0391961269        1.8751039595
 H        -2.0054682050       -3.5461130419        2.3338921365
 H        -0.4207981222       -6.5094315833        0.3397465736
 H        -1.4571088434       -6.7337663458       -1.1254424760
 H        -2.8151432118       -5.4385149244        0.9007942142
 H        -3.3929563391       -5.9215083742       -0.8136108147
 H        -4.2039650319       -4.6866702745        0.2553296090
 H        -3.8366467500       -3.1785109422       -1.7190694391
 H        -2.3607096397       -2.6950400941       -2.3387656090
 H        -2.8185458200       -4.3400302707       -2.7254395298
 H         1.5405911950       -5.9158439448       -1.5890155440
 H         1.0334875864       -7.6032338437       -1.3278714341
 H         0.2613475485       -5.3714288103       -6.5648397118
 H        -0.9149958807       -4.8581865122       -5.3225750271
 H         2.9001010823       -6.6752930423       -2.8436244734
 H         3.4231295207       -7.0008945633       -4.4590873369
 H         2.7159900751       -8.2489734645       -3.5339166095
 H         0.6788252974       -8.7139651647       -4.7876327904
 H        -0.4586906487       -7.4924944369       -5.2184423975
 H         1.1671106149       -7.6505763904       -6.1164058504
 H        -0.2794129675       -3.1986506685       -7.2469668073
 H         1.4710072951       -3.3237358895       -6.7389983619
 H         3.0214698307       -0.7379597485       -4.7875960643
 H         2.7067340916        0.9851457681       -5.0011972274
 H         1.4627220319        0.2821508279       -7.1538343359
 H         1.0832205920       -1.0741149031       -7.8524448536
 H         2.4411455442       -1.0404220647       -6.8672531432
 H        -1.4193005289        0.2778406977       -5.3109721154
 H        -0.8621492448        0.8134496922       -6.7761604270
 H        -1.5945464672       -0.8752690553       -6.6122417213
 H         3.9639712265        0.8725764106       -2.9759734748
 H         2.3581994865        1.0163496587       -2.4628316680
 H         3.5241131940       -0.3071683480        2.3406359594
 H         3.3365719480        1.2246313643        1.3756727106
 H         5.3342481933       -2.3475054927        0.0523041304
 H         5.0435361892       -2.4339017786       -1.6846319123
 H         3.7755231346       -3.0985262566       -0.5090247077
 H         5.7052824603        0.2397858725       -1.3990447312
 H         4.3374741144        1.0782979959       -0.3860712942
 H         5.4758223370        0.0437045878        0.2960720259
 H         1.6315028211        1.0422440702        3.2049160071
 H         0.8763260023       -0.2117052918        2.4042074897
 H         1.0066980737        5.2989513595       -0.3220106800
 H         1.7439195519        5.7612204803        1.1275333322
 H        -1.0577438815        3.4711226832        2.6214522642
 H        -0.8712846751        3.6689036971        0.9072568587
 H        -0.3693271187        4.9200918867        2.0785621698
 H         1.9726346231        4.5706529978        3.1821316993
 H         1.4912663093        3.0806506750        4.0325876694
 H         2.9547049572        3.0552622108        3.0481734758
 H         3.8138156264        4.8843094399       -0.7601511468
 H         2.5671595509        5.6958476782       -1.6858375646
 H         7.1412040091        6.7841731097       -3.3634858135
 H         6.2876157025        8.1707916461       -4.0471234865
 H         6.9325403926        8.3542925438       -2.5219656771
 H         3.4883914690        8.9295600037       -3.1271462501
 H         2.2999864949        9.0036290771       -1.8919719211
 H         2.4545471618        7.5860764640       -2.7352162373
 H         4.5040162257        9.7304030729       -0.4751182703
 H         5.8265475481        8.7627808741       -0.2891539560
 H         5.6287219209        9.6774940907       -1.7848405138
 Na        0.1992605021       -1.7051028822       -1.9007343734
