155

 C        -8.4130800470        3.7059660851        3.7220420099
 C        -8.0680312420        2.5652433300        4.7111088804
 C        -7.6725177086        2.7785492448        6.2486856372
 C        -6.2112546846        2.1782306751        6.2223421596
 C        -6.1588438381        0.6810805808        6.5414186786
 C        -7.7765623494        4.3041237726        6.5266876098
 C        -8.6030278788        1.9180407642        7.1696506491
 O        -8.1201803774        1.3845886430        4.3415351745
 O        -5.2585776826        2.8361074419        5.9107000066
 C        -4.7161989191        0.1498099899        6.5679205801
 C        -4.0402147328        0.1956439687        5.1465946129
 C        -2.4956048762       -0.1511747891        5.1542216806
 C        -2.3553617605       -1.5641065368        4.4243252953
 C        -2.3253098505       -1.4173213128        2.8680824255
 O        -4.6533529899        0.4179361006        4.0975597530
 O        -2.6201822411       -2.6383630651        4.9734400361
 C        -1.8796676669        1.1352560934        4.4089419116
 C        -1.7337650360       -0.4723697790        6.4597881234
 C        -2.3108227268       -2.7935720479        2.0674893931
 C        -1.9336919644       -2.7731993812        0.6288043436
 C        -2.3557196367       -4.0372887011       -0.3134741564
 C        -0.9529609056       -4.6348448353       -0.8708341084
 C        -0.8727688050       -6.2175856805       -0.9575359052
 C        -3.2345094975       -5.0656391857        0.4726128267
 C        -3.1371480384       -3.4583076598       -1.4983175321
 O        -1.3920521707       -1.8339725486        0.1033487575
 O        -0.0120817207       -3.9340308562       -1.2656400050
 C         0.3106050123       -6.7717545578       -1.8505171258
 C        -0.0543962144       -6.3170393092       -3.3145292099
 C         1.1705414027       -6.4136547687       -4.3590044287
 C         1.0646637669       -5.3124925057       -5.4709731674
 C        -0.3524146209       -4.9726654062       -6.1773506594
 O        -1.1764735834       -6.1543902246       -3.6698362535
 O         2.0486815299       -4.7275288185       -5.8430817483
 C         2.6363714275       -6.4283630003       -3.8485983894
 C         0.8933776398       -7.7789858782       -4.8851668133
 C        -0.3558210290       -3.4635338711       -6.4385161756
 C        -0.1048754756       -2.5287027628       -5.1471986930
 C         0.0875190440       -1.0491038082       -5.5206488205
 C         0.7498788099       -0.2448594777       -4.3344700546
 C         2.0746986067        0.4037141510       -4.5074859134
 C         0.8478503096       -0.8065301696       -6.8127901400
 C        -1.3279977075       -0.4553490832       -5.7252672669
 O        -0.3453006514       -2.9645094030       -4.0416912293
 O         0.0418961964       -0.0843448004       -3.3414080739
 C         2.8492105164        0.5334523782       -3.1630526935
 C         3.0368143170       -0.8197319232       -2.4267167151
 C         3.6015221879       -0.8750280900       -0.9835772430
 C         2.4172301376       -0.6043144974        0.1621519924
 C         2.7823670688        0.2011306407        1.3744600753
 O         2.6096511356       -1.8128699290       -2.9624830193
 O         1.3497364519       -1.1061706833        0.0744777344
 C         3.9749617358       -2.3204415956       -0.7783296196
 C         4.7374086633        0.0748698275       -0.7076961277
 C         1.5100593201        0.5234238750        2.2400458554
 C         0.9225583354        1.6842461786        1.4546392667
 C         1.3611308686        3.1738441788        1.6839802646
 C         2.2629516757        3.7769735898        0.4186161403
 C         1.9486269866        5.2102068440       -0.0062819675
 C         0.0910918841        4.0073181198        1.8910444866
 C         2.2370548307        3.4516218885        2.9388715672
 O        -0.0088534758        1.5079139946        0.6847789949
 O         3.1062040420        3.0548371612       -0.0434973508
 C         2.7224501068        5.7825370192       -1.1863955105
 C         3.6846261690        6.8607386537       -0.6158888885
 C         4.5878804746        7.7879969224       -1.6203310536
 C         5.2939513886        6.9931934667       -2.7518821805
 C         6.3082433235        7.6062885353       -3.7177091877
 O         3.8331926192        7.0073327289        0.5676575382
 O         4.9498385751        5.8472256967       -2.9786302165
 C         3.6381587533        8.8805098863       -2.2132313516
 C         5.6192312356        8.5406298829       -0.8089074804
 H        -8.9706522721        4.5212408894        4.1253046831
 H        -7.5270843409        4.0185484829        3.1415078690
 H        -9.0866531582        3.3024469498        2.9785541228
 H        -6.6654941812        0.5450662990        7.5110676097
 H        -6.7268216694        0.2078909772        5.7760775435
 H        -7.4513278392        4.8045677401        5.6863164114
 H        -7.1493852109        4.7296388650        7.3445137102
 H        -8.7926729592        4.6656861740        6.7088492298
 H        -9.5419153883        2.3435333802        7.1567517787
 H        -8.7032669250        1.0046952535        6.6606644551
 H        -8.1935492665        1.7412813827        8.1905519793
 H        -3.9976599369        0.6640334330        7.1554510437
 H        -4.8550476853       -0.9663275758        6.7277250916
 H        -3.3478449536       -1.0046898442        2.5684959172
 H        -1.5586619380       -0.8102984942        2.4633181769
 H        -2.5100773679        1.4176720572        3.6010855930
 H        -0.8175930611        1.0065665824        4.2131101041
 H        -1.8223343863        1.9085473177        5.2284750359
 H        -1.9843077776       -1.5089492230        6.6869591312
 H        -0.6651340407       -0.2487788383        6.2115061911
 H        -2.1195488347        0.1517776625        7.2855047216
 H        -3.3376096724       -3.1705591123        2.2187432728
 H        -1.6525889892       -3.4633505562        2.5691565778
 H        -0.9179199182       -6.6708254873        0.1140104510
 H        -1.7304520499       -6.6881710837       -1.3820161115
 H        -2.8010295190       -5.5502801589        1.2380825150
 H        -3.6323985982       -5.8200119114       -0.2176695745
 H        -4.1051064048       -4.4254495143        0.7221015024
 H        -3.7245914061       -2.6264524622       -1.2650986754
 H        -2.3890649728       -3.2235860339       -2.2282391655
 H        -3.8227451577       -4.1976781885       -1.8925253288
 H         1.1901726714       -6.2104398806       -1.6266020957
 H         0.5548901078       -7.8411044935       -1.6951940308
 H        -0.4333753290       -5.5190477413       -7.1542557688
 H        -1.1757384799       -5.1902037368       -5.5436019736
 H         2.8360715962       -5.6466556831       -3.1215796854
 H         3.3642954840       -6.3469536156       -4.5911041133
 H         2.7920068349       -7.3448442178       -3.2895412390
 H         1.0607734553       -8.4295043979       -4.1033791200
 H        -0.1099755988       -7.7168296195       -5.1963016021
 H         1.5079829440       -8.0013981610       -5.7999868319
 H        -1.2883201708       -3.0357884239       -6.8146838132
 H         0.4632013245       -3.2720894181       -7.1331715237
 H         2.7436896834       -0.3164149641       -5.1310079774
 H         1.8562988120        1.3238338401       -5.0181627897
 H         1.1891023829        0.2512379192       -6.8289167714
 H         0.1334497431       -0.9443056827       -7.6257145566
 H         1.6877385492       -1.4076754418       -7.0786476371
 H        -2.0039754248       -0.3832920380       -4.8605304126
 H        -1.2048225038        0.5187351423       -6.2194616559
 H        -1.9309798436       -0.9068743372       -6.4900264139
 H         3.8047656272        0.9268811699       -3.5099891081
 H         2.4512585591        1.2932384569       -2.4492838414
 H         3.4312562800       -0.3348884625        2.1653831288
 H         3.3070146050        1.1632164791        1.1426527440
 H         4.0737696834       -2.5669549567        0.3109245492
 H         4.9197535245       -2.5699362322       -1.3148514658
 H         3.1677597892       -2.8971342930       -1.2072144753
 H         5.4381543730       -0.1808515891       -1.4031868395
 H         4.5155197951        1.1438409944       -0.7792245741
 H         5.0832750554       -0.2734406337        0.2616834466
 H         1.7614897625        0.8261175768        3.2680721093
 H         0.7444134823       -0.2654204120        2.2489168962
 H         0.8542756970        5.2305784667       -0.2755952757
 H         2.1031605554        5.7637262686        0.8760505375
 H        -0.6237635850        3.4806653114        2.5771655223
 H        -0.4784418835        4.1591046732        0.9995625971
 H         0.3133048829        4.9776117190        2.3794610593
 H         2.5990601370        4.5083996260        2.9830141585
 H         1.6187477610        3.2237376822        3.7544434027
 H         3.1251825346        2.8234521690        2.9675260087
 H         3.3515894399        5.1221176627       -1.7712825701
 H         2.0802301026        6.3093030362       -1.9363502363
 H         6.3078050878        7.1946413228       -4.7212190995
 H         6.3371583949        8.6900008708       -3.7264896971
 H         7.2828824866        7.2379057278       -3.3559702032
 H         4.1262580538        9.6019798466       -2.8567741470
 H         3.3918829397        9.4022132640       -1.3043322084
 H         2.7124169577        8.5828695935       -2.7517788824
 H         5.0495159561        8.9539487712        0.0352997130
 H         6.3798105146        7.8613198489       -0.4484100112
 H         6.1577890877        9.4609314339       -1.3114744064
 Na        0.1610546576       -1.8486133406       -1.8631049189
