155

 C         6.9118927657        0.0890196520        6.0169373598
 C         7.8659562390       -0.7885400223        5.2364359636
 C         7.5981867694       -2.3752103949        5.1688190783
 C         6.0830635967       -2.7397737988        5.0334562371
 C         5.5959801589       -4.2098578204        4.7421468959
 C         8.4477595609       -3.1045534441        3.9721441804
 C         8.0580737102       -2.9887904274        6.5486171162
 O         8.6648637253       -0.2636900319        4.4508820249
 O         5.2027088591       -1.9118214130        5.2790168144
 C         4.1429353206       -4.5638121090        4.8698603728
 C         3.2178635457       -3.9851168863        3.6501248483
 C         1.6988438770       -4.3480047791        3.6821411055
 C         0.7859509635       -3.2244008152        4.4234023738
 C         0.7761753685       -1.8701358947        3.8046111945
 O         3.6874635481       -3.2803616479        2.8025497944
 O         0.0280384802       -3.4340888177        5.3667479096
 C         1.1473912002       -4.5631558919        2.2570175753
 C         1.5600909391       -5.6250533340        4.6517013440
 C        -0.3130824397       -0.9997192408        4.4796948912
 C        -1.0225596797        0.1208180994        3.6520274285
 C        -1.6301744054        1.4164761052        4.3114112333
 C        -0.6910339684        2.5808584412        3.7592380909
 C         0.0086787390        3.5289358983        4.6391996449
 C        -3.0549426461        1.4648041257        3.8069981898
 C        -1.6092627441        1.3340023710        5.8368549381
 O        -0.9877081840       -0.0065916887        2.4682984154
 O        -0.5460874819        2.7095540337        2.5358402924
 C         1.4891846882        3.7891040171        4.2154627180
 C         2.4392276422        2.6016076263        4.1839856401
 C         3.9325076968        2.6500995667        3.3522458696
 C         3.3767571409        3.0505526399        1.9759914822
 C         2.4076028306        1.9874795594        1.1961806901
 O         2.1940182247        1.6234807126        4.8388285726
 O         3.2481899698        4.2319725523        1.6995691830
 C         4.7732138281        3.6909828900        4.0537622401
 C         4.6625578754        1.3592362403        3.2760662565
 C         2.6409792545        1.9345323162       -0.2794059267
 C         1.5408064426        1.0587611688       -0.9766176798
 C         1.7498669309        0.8141753571       -2.5652358607
 C         0.3096093427        1.2688424026       -3.2251191937
 C        -0.0667563296        2.6731253280       -2.9415395936
 C         2.8622787814        1.6776815756       -3.1859234916
 C         1.9381370829       -0.6919306007       -2.7944496388
 O         0.5480414722        0.6238686293       -0.4430372069
 O        -0.4489381934        0.5451365982       -3.8865057217
 C        -1.4832377609        3.0914051371       -3.4324675302
 C        -2.4184281014        2.9174090638       -2.1859013500
 C        -3.7103731994        2.0124279475       -2.2964950252
 C        -3.1586465184        0.4503985367       -1.7803979696
 C        -3.2663273599       -0.7904259193       -2.7217780270
 O        -1.9792612689        3.2647216384       -1.0975945717
 O        -2.6261495222        0.1620788617       -0.7635036825
 C        -4.7902256340        2.6233680948       -1.3143347048
 C        -4.2651344062        1.8903520584       -3.6888599664
 C        -4.7016466900       -1.2575645205       -2.7826794956
 C        -5.1827097938       -2.2590690995       -3.8525654225
 C        -6.8637218240       -2.1353248369       -3.9864991296
 C        -7.1459217988       -0.7550832586       -4.7861718651
 C        -7.0588455159       -0.6506313887       -6.3627469409
 C        -7.3920653371       -3.3642763942       -4.7980088566
 C        -7.6241427420       -2.1746954703       -2.6853360664
 O        -4.4855736313       -2.9647752677       -4.5511978336
 O        -7.4065510770        0.3072133565       -4.1666351592
 C        -5.9215061708       -1.0854361514       -7.2626892677
 C        -5.9523571045       -0.2417352048       -8.5704931058
 C        -4.5992963497        0.2127915644       -9.2030644370
 C        -3.8860387523        1.1664837696       -8.0968645143
 C        -3.7384101238        2.6540869074       -8.4384053700
 O        -7.0080255020        0.0851538854       -9.0293544012
 O        -3.4968080268        0.7233981905       -7.0377762084
 C        -3.6943498946       -1.0878180990       -9.3051802240
 C        -4.8859338764        0.9206072262      -10.5836864847
 H         5.9976262720        0.3373029343        5.5177645398
 H         6.5746865653       -0.4675144079        6.8991147565
 H         7.4611348890        0.9748840016        6.2926106808
 H         5.8988581051       -4.3996895515        3.7333156534
 H         6.1756482128       -4.8254822748        5.3714686408
 H         9.4310981165       -2.6203077598        3.7746488132
 H         7.9566779466       -3.0565983860        2.9750854269
 H         8.5697674417       -4.1223732729        4.1938676509
 H         7.3938526657       -2.6072187198        7.3909221990
 H         8.2094587131       -4.0846726294        6.5254768481
 H         9.0438545949       -2.7423132453        6.8941206178
 H         4.0940267671       -5.6538221722        4.9764932529
 H         3.8697808517       -4.1288357169        5.9277749750
 H         1.8792699076       -1.5792233581        4.0083034817
 H         0.6673508859       -1.9978575411        2.7177686133
 H         1.0747046405       -5.6012651590        2.0788979855
 H         1.8685382878       -4.0952215358        1.5700342703
 H         0.2459948811       -3.9812339212        2.1405895247
 H         2.1619680799       -5.6582809936        5.4992536807
 H         0.5185843517       -5.7128363731        4.8878224121
 H         1.9464160317       -6.5073340093        4.1687372134
 H         0.1203476024       -0.5306004947        5.3376586273
 H        -1.0773347134       -1.6999922667        4.6931280187
 H        -0.4852623808        4.5058508956        4.6826230780
 H         0.0664514532        3.3185535005        5.7091029528
 H        -3.4783295104        2.3868808129        4.1548747636
 H        -3.5660525119        0.5469120211        4.0943007951
 H        -3.1398722188        1.6041260302        2.6599854420
 H        -2.2123614281        0.5278570998        6.1979954999
 H        -0.6000154150        1.2416994041        6.2173872450
 H        -2.0500057504        2.1833193704        6.2588709266
 H         1.4837398076        4.3351107213        3.2477939127
 H         1.9568730201        4.5351773814        4.8844323917
 H         2.4908092551        1.0545797140        1.7271001143
 H         1.3770030262        2.2748631246        1.3991067549
 H         4.5819724984        3.6042255331        5.0926422509
 H         4.4910494466        4.7345445672        3.7681955482
 H         5.8602922950        3.7481390623        3.9132303757
 H         5.4246196833        1.3320000227        2.5155739833
 H         5.1773316261        1.2221151485        4.2479908070
 H         3.9885179534        0.5047995430        3.0826610055
 H         3.5823906286        1.4485213737       -0.5049820279
 H         2.5936645502        2.9326349811       -0.7055020869
 H        -0.0225003123        2.7797417420       -1.8409403106
 H         0.6152292539        3.3124980924       -3.4649735236
 H         3.8697355256        1.3871451155       -2.8694294996
 H         2.7534915572        2.7073620561       -2.9530978630
 H         2.9246136841        1.4839671369       -4.2537974884
 H         2.8209408340       -1.2351526860       -2.4282358586
 H         1.0126586029       -1.1537763973       -2.3752667606
 H         1.9592454280       -0.6099680374       -3.8560813742
 H        -1.4690615048        4.1305680436       -3.8305245597
 H        -1.7053654795        2.4436945931       -4.3285546645
 H        -3.0529575085       -0.5860997897       -3.8277728918
 H        -2.5853127744       -1.5528456438       -2.3901739597
 H        -4.4649288754        2.4627355556       -0.2731710722
 H        -5.6429821822        2.0185376992       -1.4568005019
 H        -4.9954203481        3.6914591463       -1.6313333779
 H        -4.0376928135        2.7157374830       -4.3335514820
 H        -3.8859379146        1.1034995185       -4.3333140929
 H        -5.3650160390        1.6432470481       -3.7244794704
 H        -5.3756653070       -0.4285005219       -2.8809577457
 H        -4.9592677930       -1.7081234536       -1.7860856545
 H        -8.0266439339       -1.1266805412       -6.6943557367
 H        -7.2398996444        0.4148696441       -6.6150306621
 H        -7.3896332991       -4.1709500474       -4.0398354516
 H        -6.7113291365       -3.5245067266       -5.6506088018
 H        -8.4148597588       -3.1118717872       -5.0996151475
 H        -8.6986549674       -1.9751046930       -2.7856026269
 H        -7.5770767347       -3.1118679381       -2.1122616551
 H        -7.2493547965       -1.3618871815       -2.0914462736
 H        -5.0312739361       -0.8997082271       -6.6481367832
 H        -5.9893140825       -2.1302596998       -7.4529745524
 H        -3.4125405699        2.8352335262       -9.4477681050
 H        -4.6957693999        3.1443624593       -8.3140461710
 H        -3.0825990929        3.1091513751       -7.7478130741
 H        -4.1612100854       -1.9715769168       -9.6982444886
 H        -3.3958314912       -1.1924218283       -8.2594127312
 H        -2.7789426416       -1.0039144508       -9.8962567040
 H        -4.4958237119        1.9192897281      -10.5547316029
 H        -4.5436121617        0.4025915473      -11.4671052867
 H        -5.9902629800        0.9604817840      -10.7829822604
 Na       -1.4028583258        1.5016025727        0.6080530319
