155

 C        -5.4282144523        2.9175116114        3.8758080404
 C        -6.2379785157        2.8512468374        5.1954419336
 C        -5.5775799452        3.3611082546        6.5446682682
 C        -4.3958089480        2.4482407845        6.8070113121
 C        -4.6087690731        0.9209488660        7.0891383235
 C        -5.0410348569        4.8128393823        6.4794251303
 C        -6.5694794924        3.2501130488        7.8450529180
 O        -7.2077031458        2.1780303059        5.2577994230
 O        -3.2313683444        2.8470386988        6.7427212667
 C        -3.2823702700        0.1586811381        7.4059689700
 C        -2.8139524097       -0.7689306724        6.2413441197
 C        -1.3211192208       -1.1728449008        5.9863341783
 C        -1.1943974864       -2.3162644571        4.9953925634
 C        -1.5927998305       -2.2110645584        3.3895867926
 O        -3.7256818813       -1.1661311326        5.5616496250
 O        -0.8031327237       -3.3583592590        5.4140233381
 C        -0.5871781074        0.1217156226        5.4256539053
 C        -0.6690872166       -1.5919058940        7.3547962269
 C        -1.5740910904       -3.6843159237        2.6864141458
 C        -1.0342538911       -3.6173021607        1.2349789790
 C        -1.1745226609       -4.9006470887        0.2632226406
 C        -0.0203908283       -5.0025422480       -0.7662435228
 C        -0.1822160314       -6.2937043083       -1.6646985795
 C        -1.1862864507       -6.2854442461        1.0829989809
 C        -2.4808266377       -4.6481199710       -0.4474973366
 O        -0.5117373130       -2.5998584636        0.8095968174
 O         0.8713253003       -4.2232939322       -0.9083041121
 C        -0.0565416893       -6.0377044881       -3.2317667184
 C        -1.3186037054       -6.3512778968       -3.9439575045
 C        -1.3519018741       -6.1501326996       -5.5717731848
 C        -1.6385454389       -4.7154185366       -5.9570826977
 C        -3.0371073212       -4.2273892275       -5.3277290109
 O        -2.3526734148       -6.5054577058       -3.3541023773
 O        -1.0135334420       -3.9908327798       -6.6339659335
 C        -0.0519429512       -6.6754850875       -6.2404761965
 C        -2.5053760716       -6.9990647099       -6.1217361301
 C        -3.0636253428       -2.7067670396       -5.3487672456
 C        -2.4207358683       -1.9808802036       -4.0546790518
 C        -2.6685528152       -0.3366427016       -3.9618580192
 C        -1.8797829455        0.3673575566       -2.8230951621
 C        -1.0029381255        1.5977435868       -3.3444474414
 C        -2.4864228153        0.2870159246       -5.3793279222
 C        -4.1903541920       -0.4231373563       -3.6147972836
 O        -1.8068221948       -2.6424182411       -3.2166725133
 O        -1.9096128126       -0.0702929982       -1.6718387615
 C         0.3999660035        1.6272825028       -2.6475560907
 C         1.1999978003        0.4178560453       -2.8024938660
 C         2.6441187085        0.2166910768       -2.1947240554
 C         2.3459008768        0.1189137246       -0.6908108513
 C         3.4168626054        0.8063438561        0.3893149687
 O         0.6318867403       -0.5737851561       -3.2739547271
 O         1.4367849576       -0.5142862254       -0.1736417140
 C         3.2101344076       -1.1281253562       -2.6824658831
 C         3.5231959389        1.3711956579       -2.5152282380
 C         2.6605711832        1.4043644816        1.5982644429
 C         1.7523030176        2.5686641548        1.3061586427
 C         2.1968402752        4.0479538252        1.4640842059
 C         2.6799725032        4.5444588041        0.0121228647
 C         3.1641103206        5.9865687364       -0.1400998752
 C         0.9950519566        5.0727232787        1.7889910376
 C         3.3825223218        4.2112050673        2.4725324965
 O         0.6255329664        2.3153508934        0.9145880382
 O         2.4520895229        3.7930441047       -0.8958160993
 C         3.8930759834        6.3403263897       -1.4427024537
 C         5.0252306873        5.4147599914       -1.7741828269
 C         5.9965668792        5.7816331721       -3.1020738360
 C         5.0578261722        5.9346445921       -4.3813953961
 C         5.1819730711        7.1337511022       -5.3624627155
 O         5.4682466933        4.4964614712       -1.0478826947
 O         4.2444345169        5.1074151249       -4.6489457660
 C         6.7959039345        7.0668490064       -2.8387395162
 C         7.0348788494        4.6211168575       -3.1613489411
 H        -6.0163898670        2.4067160544        3.0848508053
 H        -5.1860380928        3.9959244497        3.5826592663
 H        -4.4292782928        2.5284210494        4.1233067362
 H        -5.2882485696        0.8559154684        7.9103656081
 H        -5.3060081764        0.5154378596        6.3382965850
 H        -4.4636048148        4.9177621586        5.5383847044
 H        -4.4974253371        5.0008211822        7.3958789729
 H        -5.8346681468        5.4967309534        6.3363865757
 H        -7.0999373173        4.2272061785        8.0518304587
 H        -7.2024258538        2.3636535903        7.6541508233
 H        -5.9963698345        3.0403285231        8.7271576905
 H        -2.5084768356        0.8532473248        7.8329251451
 H        -3.4958365534       -0.4418733149        8.2531348291
 H        -2.4572768640       -1.6436324364        3.2460628932
 H        -0.8568283522       -1.5023311967        3.0225573865
 H        -1.0034112154        0.5600488853        4.5066377432
 H         0.3045279898       -0.2897643387        5.1440941126
 H        -0.5093779935        0.9064707926        6.1250284951
 H        -1.1394759760       -2.4965411441        7.6458864609
 H         0.3840721299       -1.8158671528        7.1724649399
 H        -0.6329238924       -0.7575712205        7.9924413616
 H        -2.6093652143       -4.0644308092        2.8248828675
 H        -0.9168438134       -4.3373156712        3.3596462812
 H         0.5197604478       -7.0410267220       -1.1277287500
 H        -1.1892537726       -6.6351379857       -1.4910996223
 H        -0.3516838728       -6.2789063014        1.8222011016
 H        -1.1526928309       -7.0401901553        0.3215195392
 H        -2.0885711721       -6.4664553059        1.5516337726
 H        -3.3917008529       -4.6627956515        0.1231302726
 H        -2.3872354977       -3.6676930110       -0.9466574065
 H        -2.7374589574       -5.5030993806       -1.1099058956
 H         0.2864665054       -5.0091143356       -3.5403837470
 H         0.7387508915       -6.7136166772       -3.4294364352
 H        -3.8314226345       -4.7074789807       -5.8524128037
 H        -3.1866485795       -4.6030323457       -4.2845801652
 H         0.8401300436       -6.1801207627       -6.0217793053
 H        -0.2732452804       -6.5749125321       -7.3418580346
 H         0.0737241753       -7.7397013825       -6.0656461789
 H        -2.1613113743       -8.0673357339       -6.2153016153
 H        -3.4518017672       -6.9597138159       -5.5481897900
 H        -2.8796731157       -6.6462698366       -7.0556593688
 H        -4.0792675009       -2.3908053553       -5.2855722768
 H        -2.6182281898       -2.2723935892       -6.2491711962
 H        -0.9275648655        1.7144520166       -4.4155188591
 H        -1.5183622932        2.4859288809       -2.9609868860
 H        -2.5001366221        1.3128829848       -5.4816104125
 H        -3.1510787541       -0.1317989396       -6.1007448283
 H        -1.4587825284        0.1517890149       -5.6629774569
 H        -4.3458763408       -0.9350912651       -2.6799253439
 H        -4.7688512570        0.5019897828       -3.4392690724
 H        -4.5940703080       -1.0057766142       -4.4635296565
 H         1.0489981324        2.5877709310       -2.8238048951
 H         0.2298696260        1.5767433359       -1.5634359980
 H         4.0405070476       -0.0727098755        0.7962281341
 H         4.1376970612        1.6235070514       -0.1084165829
 H         2.4826439952       -1.5937635365       -3.3758026619
 H         3.4897725735       -1.7337801890       -1.8048946218
 H         4.1480592641       -0.8877887598       -3.1461199531
 H         3.5782678878        1.4494982797       -3.6177973208
 H         2.9706389283        2.1693330718       -2.1131828054
 H         4.4820597114        1.2727771752       -2.1565293797
 H         3.2794676506        1.8647251578        2.3696382708
 H         2.1986321500        0.6474204327        2.2197092749
 H         2.3372670696        6.6285202988       -0.0123689202
 H         3.8025058824        6.2300729965        0.7756555309
 H         0.4835818793        4.7693555950        2.7172964500
 H         0.3787600846        5.2223922969        0.9325668734
 H         1.4051557347        6.0904113635        1.9839717520
 H         3.4427682801        5.2214554109        2.8736963105
 H         3.4400824659        3.5311847406        3.4233753344
 H         4.4079574390        4.0487067408        2.1051031448
 H         3.2917583472        6.2954949795       -2.3731710973
 H         4.1735734229        7.3953303530       -1.3988038530
 H         5.2707508708        6.7843707259       -6.3737013459
 H         4.2418051316        7.7548838134       -5.3660904340
 H         6.0429932561        7.7341196364       -5.1735689557
 H         7.5612977949        7.1635773078       -3.6143497123
 H         7.2836779790        7.0182371227       -1.8699076342
 H         6.2598691706        8.0296477003       -2.7210197206
 H         7.2212426460        4.1784110436       -4.1763939112
 H         7.9937138164        4.9829767865       -2.8185262726
 H         6.9022985590        3.8005297667       -2.4099420643
 Na       -0.4909108418       -1.8945785459       -1.4439571448
