155

 C        -5.4583122882        3.6733802176        3.9868730120
 C        -5.8449494737        2.7634367293        5.0690195479
 C        -5.2518299484        3.1880064318        6.5519469052
 C        -4.0267716706        2.2122205954        6.7811025233
 C        -4.2974249566        0.9617590864        7.6080271617
 C        -4.8709577162        4.6712684584        6.7063232684
 C        -6.3237231076        2.9699148287        7.6662101711
 O        -6.6059724464        1.8339774458        4.9269271446
 O        -2.9667329338        2.3794582424        6.2595053464
 C        -3.1679668500       -0.0652662720        7.6562501924
 C        -2.7436131376       -0.9343379804        6.3675248881
 C        -1.2061353426       -1.2356345193        6.1020544954
 C        -1.1474015429       -2.4308712017        5.1144230425
 C        -1.3932914108       -2.2465632872        3.5616326679
 O        -3.5444749130       -1.3461450552        5.5759019393
 O        -0.7241475966       -3.5219227012        5.4626481977
 C        -0.7014173112        0.1049020953        5.5240741097
 C        -0.4096944539       -1.6763488087        7.2959618533
 C        -1.2249693002       -3.6305116678        2.8731487215
 C        -1.1373121509       -3.4674532517        1.3559751164
 C        -1.2925989458       -4.8370751614        0.5641104215
 C        -0.5076161619       -4.8449272813       -0.7654707555
 C        -0.6331752235       -6.1531622713       -1.5182998019
 C        -0.9345069465       -6.0893956936        1.4177464459
 C        -2.8127552159       -4.8975021660        0.1529082543
 O        -1.0392228722       -2.4032855504        0.7890144683
 O         0.2027010010       -3.9523381843       -1.1490555739
 C        -0.3358730586       -5.9270026703       -3.0739402661
 C        -1.5017509963       -6.2578752146       -4.0269634688
 C        -1.4455458799       -6.1274822181       -5.5461179518
 C        -2.0110604389       -4.7070837168       -5.9583204059
 C        -3.3147148940       -4.0956610759       -5.2498402973
 O        -2.5113090322       -6.7519202693       -3.5312937820
 O        -1.3833609759       -3.9997259730       -6.7582925505
 C        -0.0603071721       -6.2972946056       -6.2063879342
 C        -2.4023608637       -7.1710115223       -6.2189687786
 C        -3.2940282600       -2.4912382539       -5.2909899300
 C        -2.5644850329       -1.8158064940       -4.1104602145
 C        -2.9327596537       -0.2790363383       -3.8136723779
 C        -1.8725666142        0.2657072202       -2.8658486373
 C        -1.2130299686        1.5823702126       -3.1073671699
 C        -3.0689205993        0.4373988303       -5.1481305744
 C        -4.3453524535       -0.2460402807       -3.0829730456
 O        -1.7269826607       -2.3162071628       -3.4002243009
 O        -1.5971433184       -0.2491917573       -1.8097821102
 C         0.2430978071        1.5677711425       -2.5842489440
 C         0.9782886271        0.3296125593       -2.8784596478
 C         2.5123648475        0.3196047601       -2.3545329578
 C         2.5399783957        0.3344599441       -0.8481994376
 C         3.5263808510        1.2311726841       -0.0640740015
 O         0.5710154439       -0.6449395793       -3.5005457881
 O         1.7673082421       -0.3762687988       -0.2706263981
 C         3.1871544200       -0.9720118621       -2.8189801053
 C         3.2079396764        1.5962378839       -3.0333476055
 C         2.9259497396        1.4971961321        1.3107828515
 C         1.8444789818        2.7145238580        1.2961799712
 C         2.2818075703        4.1707796887        1.3932950546
 C         2.7070647495        4.7468742381        0.0028987161
 C         3.4327417641        6.0950916676       -0.1382495868
 C         1.0455293330        4.9877663731        1.8028493204
 C         3.4352262166        4.3567557666        2.3516693320
 O         0.6878930175        2.3794692284        1.3337329376
 O         2.2888482308        4.2647023242       -1.0443171793
 C         3.9393795837        6.1393211289       -1.5575252437
 C         5.2336014754        5.1745230345       -1.8551625922
 C         6.1000377135        5.4805835314       -3.2322892614
 C         4.9117049204        5.7315225130       -4.3442840666
 C         5.1216316969        6.6498214652       -5.5084819648
 O         5.5151582650        4.2750527958       -1.0591328622
 O         4.0465982417        4.9241658571       -4.3405036155
 C         7.0171946989        6.6858198089       -2.9110906007
 C         6.9382018308        4.2500893691       -3.5541001524
 H        -5.5865161599        3.1393904222        3.0553467712
 H        -6.1899979041        4.5902447115        4.0548023491
 H        -4.4318910367        4.0531060966        4.0097998421
 H        -4.4476588406        1.3774882083        8.5687194493
 H        -5.2499909241        0.5407764436        7.4133473084
 H        -3.8645614429        5.0014386413        6.2351229123
 H        -4.9217369499        4.8806428512        7.7621113519
 H        -5.6070716515        5.3113286351        6.3166407200
 H        -7.2639079012        3.4594236835        7.3724074276
 H        -6.6584043039        1.9357824367        7.8418272726
 H        -5.8157339912        3.3005737431        8.5971373634
 H        -2.2834340410        0.4864892994        7.9648694239
 H        -3.2920714368       -0.6638668118        8.4770104688
 H        -2.2189890910       -1.6263903579        3.2641696607
 H        -0.6350016753       -1.5109029294        3.2674613765
 H        -1.3703321863        0.3210499698        4.6103478413
 H         0.3478850235        0.0581409825        5.2334976894
 H        -0.8001418324        0.9003260009        6.3002858053
 H        -0.9800089859       -2.4160020293        7.7905179659
 H         0.5710215508       -2.0470026213        7.0705725990
 H        -0.3257619262       -0.7629382363        7.8466332841
 H        -2.1774423592       -4.1524664254        3.0223257023
 H        -0.4743627621       -4.2583930426        3.3952907765
 H         0.1817693050       -6.8405182524       -1.0966571300
 H        -1.6480289680       -6.5930521241       -1.3516782996
 H         0.0797230405       -5.9104487743        1.8362166332
 H        -0.8598311162       -7.0203652477        0.8726950708
 H        -1.7219140181       -6.1336158132        2.1768983898
 H        -3.4328100582       -4.7243257594        1.0615257530
 H        -3.0998897991       -4.0321312432       -0.4593562622
 H        -3.1171054746       -5.8511677897       -0.2356839973
 H        -0.0041898112       -4.8813530918       -3.1055103729
 H         0.4888312719       -6.5412748552       -3.3307291021
 H        -4.1962103233       -4.4015383392       -5.7980391441
 H        -3.3747379013       -4.5182593742       -4.2103862063
 H         0.5959547453       -5.5721496306       -5.8550194965
 H        -0.0559984730       -6.1805932209       -7.2939800543
 H         0.3494208041       -7.2248553294       -5.9318267122
 H        -2.1232443278       -8.2280673844       -5.9281852019
 H        -3.4899734100       -7.0743961838       -5.9516443541
 H        -2.2603656281       -7.1679908299       -7.3293420205
 H        -4.2900253681       -2.1047258896       -5.1802795590
 H        -2.8444841203       -2.1260970263       -6.2257401726
 H        -1.3163560664        1.9057079823       -4.1635871702
 H        -1.8670202052        2.2567045792       -2.5382374759
 H        -3.3108581741        1.4868725725       -5.0447823744
 H        -3.9594390487        0.0425779173       -5.6080375588
 H        -2.2192661230        0.3960980340       -5.7874900044
 H        -4.3660949340       -1.0291678046       -2.3616075762
 H        -4.5468176715        0.7414690580       -2.6668115524
 H        -5.1315969574       -0.6649163568       -3.7862029986
 H         0.9140923959        2.4218623623       -2.9826312821
 H         0.1234203489        1.5969226214       -1.4800334570
 H         4.6223493515        0.8074551131        0.0623636193
 H         3.6293363133        2.2805096458       -0.5099278513
 H         3.4022329388       -0.8859072701       -3.9147464450
 H         2.4120104676       -1.7642445314       -2.7918428671
 H         4.0757819599       -1.1677373198       -2.1925323760
 H         3.1149711305        1.3672839358       -4.0545418950
 H         2.7273662795        2.5141328827       -2.8363206778
 H         4.2128036540        1.7281307817       -2.6920579294
 H         3.8334042033        1.7240500762        1.9489611292
 H         2.3109530135        0.7351251430        1.8388124292
 H         2.8000767800        6.8687879738        0.1467550056
 H         4.2157184686        6.1442012165        0.6818845700
 H         0.8211919913        4.9296199777        2.8765133470
 H         0.1921470099        4.6633135366        1.2211623989
 H         1.3232598854        6.0301508300        1.6302792869
 H         3.5658004744        5.4319727699        2.6650577026
 H         3.4568854645        3.7397321426        3.2858986874
 H         4.3665349046        4.0835501463        1.8498147223
 H         3.1101768587        5.8019272308       -2.1891917468
 H         4.1243713091        7.1404098728       -1.9062824842
 H         6.1137553273        7.1563474383       -5.5493742734
 H         5.0154124880        6.0796653717       -6.4388118145
 H         4.3967322763        7.4310446562       -5.4970647499
 H         7.6952096836        7.0766531693       -3.6740747247
 H         7.7584009816        6.4911636439       -2.1399104422
 H         6.3641025910        7.4932560596       -2.5423971101
 H         7.8076587219        4.5073985770       -4.1104783840
 H         7.2670839665        3.7490998997       -2.7179918903
 H         6.3083976279        3.4680246664       -4.1206734429
 Na       -0.0027791759       -1.8174577398       -1.4043933975
