155

 C        -4.0924672483        4.1004396085        4.4310099785
 C        -4.3422045563        2.7461013456        4.9753778273
 C        -4.3723690995        2.6184741673        6.5614396412
 C        -3.0940976698        1.8313578217        7.0887257566
 C        -2.3730682012        0.7762033048        6.2475408689
 C        -4.4468618305        3.9498516283        7.3326237117
 C        -5.5892352046        1.6518291524        6.9378412274
 O        -4.4156089191        1.7138264096        4.3576740862
 O        -2.6636241416        1.9929467850        8.2529662640
 C        -1.9501981948       -0.4463633808        7.1109052710
 C        -1.0704859770       -1.4006776042        6.2784507990
 C         0.5389674304       -1.2437069622        6.2324214362
 C         1.0384066142       -2.0802957652        5.0185608155
 C         0.4027581799       -1.8102160818        3.5679336290
 O        -1.5945938600       -2.3435237613        5.7154118312
 O         1.9725593190       -2.7885326954        5.1131629216
 C         0.9446942142        0.1694826906        5.9759199484
 C         1.1693014188       -1.8779401575        7.5228878948
 C        -0.1991745692       -3.1780865682        3.1002388190
 C        -0.7666550859       -3.0014658280        1.6448227827
 C        -1.2319472724       -4.2684681453        0.8778847712
 C        -0.7854341331       -4.0114764185       -0.6553409429
 C        -1.5223170603       -4.8427823149       -1.7339325308
 C        -0.5861289109       -5.5705557455        1.3028850099
 C        -2.7494672958       -4.3938192455        1.0550857976
 O        -0.9602458976       -1.8525856509        1.3039871167
 O         0.1975376419       -3.3248662746       -0.8676961379
 C        -1.3220820778       -4.3785253536       -3.1641118300
 C        -2.2866654665       -5.0710014860       -4.1229096414
 C        -2.4198949709       -4.3702086910       -5.4794713421
 C        -3.0984291662       -3.0451706004       -5.2897666865
 C        -4.4731479288       -2.9817638824       -4.5975992926
 O        -3.1166401423       -5.9721769238       -3.7835759913
 O        -2.6146519530       -1.9980371261       -5.6506863120
 C        -0.9886867986       -4.0683546266       -5.9918164581
 C        -3.0463762367       -5.3274191713       -6.5703827032
 C        -4.6742466569       -1.5629939083       -4.1365047949
 C        -3.9080999331       -1.1760320045       -2.9081628921
 C        -4.2637513305        0.1266950162       -2.0309256403
 C        -2.9513119627        0.8501498307       -1.9243973131
 C        -2.3630790282        1.5949953600       -3.0765469167
 C        -5.4624144285        1.0650688091       -2.6127893620
 C        -4.6992835968       -0.4186243004       -0.5740846789
 O        -3.0269471841       -1.9352840997       -2.4957463162
 O        -2.3472554027        0.8130103551       -0.8753724108
 C        -0.7883587643        1.6873337832       -2.9512524588
 C        -0.1678052543        0.3717136693       -3.3100937996
 C         1.3727067897        0.3321153116       -3.1614690889
 C         1.7655226947        0.0734022255       -1.4918730806
 C         3.1216649638        0.6612917793       -0.9786006214
 O        -0.8433898273       -0.6090318200       -3.5712421169
 O         0.8728321738       -0.3469632196       -0.7552776602
 C         1.8788532448       -1.0685380351       -3.7075075848
 C         2.1078783738        1.4554972076       -3.7575133325
 C         3.2893908256        1.1005530228        0.4461813562
 C         2.1866449147        2.1044366163        0.7394544740
 C         2.6392284972        3.6136613127        1.0484027723
 C         3.0968958742        4.0808272135       -0.3320959084
 C         4.5475543804        4.5614111263       -0.6003154192
 C         1.3735654742        4.5878839415        1.3450669895
 C         3.4881380557        3.6910169424        2.3019363051
 O         1.0082503295        1.8254981032        0.7415063513
 O         2.4477307721        3.7843746147       -1.3171283356
 C         4.7368164231        4.9398056352       -2.0925969698
 C         5.3541366581        3.7596281478       -2.7924264996
 C         6.0532885939        3.9476018239       -4.2620365289
 C         4.8852631658        3.7007467335       -5.2431191530
 C         5.0165249493        2.8861778316       -6.4737896232
 O         5.2310845392        2.6600101089       -2.3222022589
 O         3.8269575581        4.3090570307       -4.9558996120
 C         6.4247823061        5.4255641498       -4.5082547149
 C         7.2148597790        2.9431238593       -4.1847897340
 H        -4.5695439864        4.3087525320        3.4438748775
 H        -4.4362290210        4.8630405229        5.1276560319
 H        -2.9601774293        4.0350129514        4.2568154798
 H        -2.8609748241        0.5278456906        5.2685720540
 H        -1.4159055154        1.2824750727        5.7771694473
 H        -3.5638609754        4.4248626077        7.1607172254
 H        -4.5859562478        3.7076610255        8.3731481260
 H        -5.2917342282        4.6332512203        7.1099849379
 H        -6.5238004691        2.1712488499        6.7116705790
 H        -5.4421594784        0.6881089029        6.3763386555
 H        -5.4816203603        1.4161678624        8.0484652192
 H        -1.3920915976       -0.1211705681        8.0659627016
 H        -2.8738338209       -0.9516665942        7.3904552219
 H        -0.4004691198       -0.9689218987        3.7750105224
 H         1.1487560178       -1.2715763942        2.9600438332
 H         0.4279499893        0.5731359030        5.0929414225
 H         2.0393858078        0.1805723398        5.6042265970
 H         0.7202598513        0.8512334229        6.8137816639
 H         1.8605042353       -1.1438318914        7.9506660804
 H         0.4766130410       -2.1200904894        8.3041200219
 H         1.7460514663       -2.7742975892        7.3761921682
 H        -0.9991586162       -3.5495954000        3.8212370846
 H         0.6226215860       -3.9070801212        3.2445891954
 H        -1.0977959139       -5.8657448350       -1.8362181403
 H        -2.5184046274       -4.8899659199       -1.4424207408
 H         0.4767139300       -5.3948582187        1.4106792577
 H        -0.9333433590       -6.4033326643        0.6965769732
 H        -0.8540416353       -5.7466493307        2.3273669104
 H        -2.9223685629       -4.4296413280        2.1832541891
 H        -3.2753635027       -3.6300685884        0.5034058992
 H        -2.9997014532       -5.3846165893        0.7667211097
 H        -1.4481973460       -3.2278017954       -3.2216210336
 H        -0.2968671014       -4.6128900872       -3.4849637667
 H        -5.2399597642       -3.1749374007       -5.3320819266
 H        -4.5793226674       -3.6685496704       -3.7405484849
 H        -0.5176174512       -3.2131747189       -5.4086142003
 H        -0.8865286602       -3.8443835882       -7.0104864083
 H        -0.4264202984       -4.9140582262       -5.6308938347
 H        -2.5691812227       -6.3220587713       -6.6575610337
 H        -4.1356517023       -5.4421213538       -6.3071101105
 H        -2.8810781010       -4.8040308685       -7.5159456627
 H        -5.7397084785       -1.3871908498       -3.9459223102
 H        -4.4170536064       -0.9416470550       -4.9768837909
 H        -2.6057910551        1.1644723530       -3.9929034830
 H        -2.7377279401        2.6453829617       -3.1085344227
 H        -5.6990653504        1.7440247844       -1.7612026617
 H        -6.3440291501        0.5011111242       -2.8297506721
 H        -5.2418800638        1.6892445312       -3.4646207203
 H        -3.8716455737       -1.0332494407       -0.1311607218
 H        -4.7835420102        0.4451965927        0.0806794398
 H        -5.7255696899       -0.8539145093       -0.6045313133
 H        -0.3861687388        2.5087412399       -3.6090512572
 H        -0.5393084561        1.9785778531       -1.9854720862
 H         3.7890242376       -0.2707918641       -1.1411753973
 H         3.4884441919        1.4928279154       -1.6204850363
 H         1.9329556546       -1.1582382836       -4.7863916413
 H         1.2529993174       -1.8373087937       -3.3773944044
 H         2.8912537868       -1.3930520158       -3.4057546384
 H         1.8526111860        1.6572823576       -4.8323034044
 H         1.9183131937        2.3408051935       -3.2066915760
 H         3.1600347956        1.3196424348       -3.8090138661
 H         4.2807420436        1.5103741586        0.5387630304
 H         3.1807146294        0.3802874909        1.1938793590
 H         4.7734765440        5.4034265251        0.0821039194
 H         5.2247354573        3.7428814209       -0.2365836205
 H         0.8981184766        4.3575547825        2.2916677811
 H         0.6895432131        4.6667206813        0.4844515981
 H         1.7398718235        5.5891500862        1.4068167153
 H         3.6694826502        4.7425623286        2.6023268924
 H         2.9318446989        3.1312253176        3.0431321684
 H         4.3863187118        2.9955908738        2.3166433797
 H         3.8906973668        5.1411694491       -2.7166465862
 H         5.3501601738        5.8857823692       -2.1809057376
 H         4.5577472931        1.8741393290       -6.3132753561
 H         4.6527206448        3.4234457049       -7.3304372433
 H         6.0828586000        2.6822206516       -6.6441593090
 H         6.8991348600        5.5256508482       -5.4913238517
 H         7.1290080541        5.7326401526       -3.7206046724
 H         5.5348395418        6.0167539295       -4.3873391781
 H         7.8778543739        3.2415061231       -5.0313346956
 H         7.7567962563        3.1316797270       -3.2038452170
 H         6.8613244951        1.9687751703       -4.3706916402
 Na       -1.4364670475       -1.2393603703       -0.9502192942
