155

 C        -2.5781828908        3.4204187288        5.2934099540
 C        -3.8507334375        2.6264801020        5.2476078664
 C        -4.3310373699        2.0752309785        6.6480288833
 C        -3.1034593919        1.4514920306        7.3087741838
 C        -2.5051752528        0.0289811754        6.9228342191
 C        -4.9438210045        3.1724614461        7.5227481173
 C        -5.3520049339        0.9394104308        6.2881168530
 O        -4.4731800684        2.4117890382        4.2371903386
 O        -2.4411129592        2.1408448657        8.1254345967
 C        -0.9744033182        0.2021754446        7.0505383302
 C        -0.3840769916       -1.0221570613        6.3480013406
 C         1.1867318913       -1.1308267887        5.9273740267
 C         1.3843971150       -2.0563341863        4.6449355509
 C         0.5164656718       -1.9312133212        3.4305210986
 O        -1.0932279462       -1.9778213198        6.0900300631
 O         2.2598910129       -2.8754704568        4.5216912134
 C         1.6417173921        0.2087433386        5.4508761729
 C         1.9239868571       -1.6008229615        7.1238983020
 C         0.1231937667       -3.2740462163        2.9826803627
 C        -0.7330084760       -3.2378869520        1.6272497752
 C        -1.0952557649       -4.5941605849        0.8518738651
 C        -0.7592126444       -4.2818668922       -0.6535100521
 C        -1.3904670638       -5.0885957195       -1.7173404538
 C        -0.2006590819       -5.7957489618        1.2585334413
 C        -2.6064983305       -4.7899868249        1.1863498519
 O        -1.1155049729       -2.1900509994        1.1747755975
 O         0.0980226787       -3.4464323313       -0.8932100966
 C        -1.4211106278       -4.4467178009       -3.0609616521
 C        -2.6320977871       -4.5460537367       -3.9302580875
 C        -2.8746619041       -3.6631626281       -5.1717895801
 C        -4.0137164996       -2.4820421421       -5.0432657442
 C        -5.1033334982       -2.6725713505       -3.9503567321
 O        -3.4921266114       -5.3700324094       -3.5552111411
 O        -4.0375675976       -1.5284372328       -5.8034663119
 C        -1.5481904380       -2.8671240841       -5.4423504384
 C        -3.1071470885       -4.5163210676       -6.3879881998
 C        -5.5273977392       -1.3853928098       -3.1577698138
 C        -4.4932945018       -0.9054011292       -2.1639850669
 C        -4.4958085010        0.7253654133       -1.7051337647
 C        -3.0100539556        1.1185195757       -1.6538276085
 C        -2.4871733988        2.0019516913       -2.7746936743
 C        -5.2802087287        1.6551696781       -2.6311752614
 C        -5.2140220931        0.7144931381       -0.3974095657
 O        -3.6562418065       -1.6962404656       -1.8770169824
 O        -2.2915641989        0.5558315426       -0.8242159451
 C        -0.9038688804        1.8946604963       -2.9138346436
 C        -0.4428190379        0.4572966859       -3.0786228112
 C         1.1184617134        0.2656199427       -3.0808692934
 C         1.5570865710        0.1685146978       -1.5114802200
 C         2.8903464807        0.6548291642       -1.1303696758
 O        -1.2807443705       -0.3962337815       -3.3260942357
 O         0.7214131215       -0.3524793805       -0.7711927266
 C         1.3781577419       -1.0797876080       -3.7367765947
 C         1.8416435807        1.5033202540       -3.7748604676
 C         3.2968764437        1.0280237464        0.2832934119
 C         2.4380195222        2.1150344114        0.9354442506
 C         2.9000173333        3.6717848340        0.8473714378
 C         3.2030724072        3.9395599652       -0.6876723392
 C         4.4283584248        4.8095539262       -1.1556991747
 C         1.8974925605        4.6128429815        1.2922111905
 C         4.1906695645        3.6544827648        1.7032864267
 O         1.4123105581        1.8457187936        1.5524192184
 O         2.4767200955        3.4433223814       -1.4925188390
 C         4.6388657514        4.6300070251       -2.6565565503
 C         5.5352980212        3.4199702481       -3.1489190280
 C         5.9840587020        3.3134294590       -4.6985971901
 C         4.7739818157        3.0526509388       -5.6132397824
 C         5.0270696643        2.5030167935       -6.9795961596
 O         5.6629085268        2.4990549488       -2.3950208702
 O         3.5754068304        3.3521789845       -5.2885788324
 C         6.4704049305        4.7478693550       -5.2580157374
 C         7.1387663376        2.2925926758       -4.7149244129
 H        -1.8797912828        2.8108911760        5.9707057888
 H        -2.0698018621        3.5594760422        4.3505061643
 H        -2.7568797361        4.4634909193        5.6606668472
 H        -2.7039069576       -0.6336965803        7.7670210778
 H        -2.6508643087       -0.2853438544        5.8313760776
 H        -4.2825034888        3.5424447422        8.2668513246
 H        -5.7422710584        2.7984657085        8.1126719987
 H        -5.2823097325        3.9144788543        6.8253108529
 H        -6.3354758036        1.2916451659        5.9674806896
 H        -4.8284086969        0.2628412748        5.6299575901
 H        -5.5342592016        0.4539746929        7.3232844763
 H        -0.6501541248        1.1175100146        6.4177173401
 H        -0.5683302981        0.3156330300        8.0332427916
 H        -0.3599826657       -1.2745369422        3.5711568483
 H         1.1151323474       -1.4807818321        2.5673341181
 H         1.0927209649        0.5218079903        4.5622792011
 H         2.7788681624        0.1185406345        5.2876216697
 H         1.4519517937        1.0457877338        6.2100844541
 H         1.2275045034       -1.7262106073        8.0292847086
 H         2.2693929877       -2.5837201282        6.8147712907
 H         2.8567073690       -1.1004224661        7.4158404668
 H        -0.3898891300       -3.7131955184        3.8804919120
 H         0.9868020946       -3.9776819724        2.7754566253
 H        -0.8224367166       -5.9734178160       -1.5327696982
 H        -2.4336090740       -5.3496769168       -1.4520106865
 H         0.7620726050       -5.5228778766        0.9396417306
 H        -0.4235877766       -6.6564053180        0.7018155879
 H        -0.3653725350       -6.0735409196        2.3262698007
 H        -2.7359961141       -5.0380242702        2.2774037645
 H        -3.0683389949       -3.8703625164        0.8597606857
 H        -3.0396285751       -5.5797862295        0.5976985850
 H        -1.2638988052       -3.4017412294       -2.8409670791
 H        -0.4171071443       -4.6915175819       -3.5989388921
 H        -5.9327165694       -3.1951775921       -4.4493269684
 H        -4.7595534956       -3.3512827989       -3.1962603304
 H        -1.4028710825       -2.2463590989       -4.5055496277
 H        -1.7164808292       -2.1674110522       -6.2469643394
 H        -0.7948091352       -3.5551049622       -5.8030727480
 H        -2.1794802195       -5.0865898377       -6.6167577126
 H        -3.9825297373       -5.1665422035       -6.2649904878
 H        -3.3238299529       -3.8128073648       -7.2482990580
 H        -6.5070231426       -1.5280424320       -2.7327720822
 H        -5.6973440085       -0.6276734416       -3.9105335794
 H        -2.9237574978        1.7257770804       -3.7460790488
 H        -2.8138600414        2.9941758088       -2.7188425992
 H        -5.1922796808        2.6701234672       -2.3114778776
 H        -6.3259249939        1.4236332644       -2.6686878986
 H        -5.1116272828        1.6391682654       -3.6247047075
 H        -4.6743493801       -0.0317658663        0.2343137741
 H        -5.3850862245        1.6806414919        0.0575474846
 H        -6.2433036699        0.1885218536       -0.4823295641
 H        -0.6328889060        2.5200947813       -3.7776503455
 H        -0.5240073086        2.3175516441       -1.9840537498
 H         3.5843957759       -0.2154173096       -1.4920942654
 H         3.1753213661        1.4403622084       -1.7272498367
 H         0.9339093558       -1.0778475765       -4.7348754698
 H         0.8228672051       -1.8338148043       -3.2404529460
 H         2.3691167868       -1.4186873700       -3.9126005509
 H         1.4478268328        1.5410538446       -4.7659258828
 H         1.7484686607        2.4269237546       -3.2351385596
 H         2.8822571987        1.2135348140       -3.8475282798
 H         4.2577399941        1.4157318774        0.1666082606
 H         3.3852839390        0.2467879215        1.0259394234
 H         4.0972562003        5.8751857914       -0.8957356195
 H         5.2801223972        4.4416179840       -0.6319275221
 H         1.2476590054        4.2272384997        2.0748085620
 H         1.1044546601        4.7592188508        0.5467603909
 H         2.3866828426        5.5650761339        1.5553049196
 H         4.5910033109        4.7319114546        1.7783221988
 H         4.0532503333        3.4460219562        2.7678546853
 H         5.0978910899        3.1459043695        1.3607139480
 H         3.5766777243        4.7134977577       -3.0707826084
 H         5.1428196080        5.4989776160       -3.0597234008
 H         5.1763331020        1.3914054995       -6.7209254805
 H         4.0940896927        2.4053272661       -7.5409729053
 H         5.8567180359        2.9083378314       -7.5113552849
 H         6.7567545053        4.5667335256       -6.2734631393
 H         7.3075727055        5.0194828615       -4.6355187618
 H         5.6737643044        5.5108267252       -5.2848170626
 H         7.2622326156        1.5914538682       -3.8429395131
 H         7.1067999855        1.6604437154       -5.6600295101
 H         8.0681811275        2.8690896251       -4.8084370436
 Na       -1.3927333866       -1.4423513715       -0.9623415664
