155

 C        -2.8713054260        3.8263790519        6.0929925246
 C        -3.4720027251        2.5716937099        5.5307400298
 C        -4.0214003097        1.5879017587        6.6685732229
 C        -2.7758219787        1.2013428327        7.5794628931
 C        -1.8852116584       -0.0289897453        7.3542512879
 C        -5.0073425432        2.4223514955        7.5058048152
 C        -4.7434456275        0.3869300307        5.9379610070
 O        -3.5718674606        2.3304766013        4.3616482943
 O        -2.3840854162        1.9841130787        8.4553363033
 C        -0.8404205864        0.1123120573        6.2389273179
 C         0.2052046055       -1.0338549099        6.3505621562
 C         1.4787383304       -0.9345863914        5.5700834384
 C         1.5425719202       -2.1729109510        4.6289031500
 C         0.5058284485       -2.2017971274        3.4388592719
 O        -0.2004122215       -2.1373610262        6.7382017233
 O         2.3502591098       -3.0906739525        4.7190397621
 C         1.6513762325        0.2673720883        4.6641391520
 C         2.7149753731       -1.0350337864        6.6147055551
 C         0.6195821188       -3.3207471273        2.5006107885
 C        -0.5617180073       -3.1820047065        1.4936283672
 C        -0.9303528488       -4.4018825464        0.4504329613
 C        -1.1942561425       -3.7939278645       -1.0190293711
 C        -1.6157080756       -4.7583970928       -2.1434955565
 C         0.0840298361       -5.5262350989        0.4590106797
 C        -2.2456499314       -5.0795613144        0.9862462222
 O        -1.2568973042       -2.1987197480        1.4838103403
 O        -0.8677175953       -2.6765867130       -1.2785836790
 C        -1.9977087368       -3.9905136629       -3.3702147215
 C        -3.3333449867       -4.4398311793       -4.0413934700
 C        -3.9024732431       -3.4869029094       -5.0838000531
 C        -4.4198611758       -2.1302882941       -4.2794560325
 C        -5.5654366678       -2.2673514670       -3.2768046733
 O        -4.0116537903       -5.3620520312       -3.6284317502
 O        -3.8137343744       -1.0949454225       -4.5537499429
 C        -2.9386268206       -3.0941406699       -6.2798511617
 C        -5.1432491027       -4.1111935447       -5.6117381361
 C        -5.7757657635       -1.0315329897       -2.3838289712
 C        -4.5283206701       -0.5563743410       -1.5377918811
 C        -4.4168311888        0.9651564231       -1.3343140472
 C        -2.8731942179        1.4191702761       -1.5634981826
 C        -2.5973985334        1.8983861181       -2.9301731196
 C        -5.4851846058        1.8447172387       -2.0104517750
 C        -4.6876679770        0.8723323365        0.2482841885
 O        -3.7070705484       -1.3592270238       -1.1164243685
 O        -2.0848957809        1.3648748421       -0.6492949196
 C        -1.0863981030        1.8175327606       -3.2461032003
 C        -0.4913194802        0.3639987261       -3.0634531949
 C         1.1342773168        0.2111308237       -2.9837064297
 C         1.5968749335        0.3232933599       -1.4644236514
 C         3.1342170262        0.3972495588       -1.1991489132
 O        -1.2029712529       -0.6191202968       -2.9026202260
 O         0.7675706427        0.1477083672       -0.5898018331
 C         1.5611621395       -1.2369697960       -3.4513210538
 C         1.8460385166        1.2733259207       -3.8719434919
 C         3.3416616913        0.6400563364        0.3006311823
 C         2.8265833434        2.1063401468        0.9017385902
 C         3.5380096140        3.4034098939        0.4512966869
 C         3.2105743322        3.7478687142       -1.0970897086
 C         4.1286691336        4.7116818576       -1.8876323700
 C         2.7730154496        4.5319943114        1.2641142272
 C         4.9799437076        3.4809671994        0.8874123006
 O         1.9183552575        2.1123775158        1.6904257254
 O         2.3107836334        3.1883434021       -1.6594463245
 C         4.1207460511        4.3088371537       -3.3280753246
 C         4.9737401039        3.0680142661       -3.4818321284
 C         5.7709104099        2.8642780026       -4.9190551851
 C         4.7254807803        2.6516432592       -5.9957175330
 C         5.2704551678        2.3429795688       -7.4224918074
 O         5.1915741520        2.3353963010       -2.5489434987
 O         3.4635908277        2.5685906839       -5.8928358928
 C         6.5387339207        4.2537871878       -5.1759322286
 C         6.6082786154        1.6579356891       -4.8952996952
 H        -1.8341526979        4.0148424689        5.5676591387
 H        -3.4137013601        4.7511791238        5.9904751828
 H        -2.6193783115        3.5735748923        7.1395426447
 H        -1.4354282307       -0.1874391519        8.2669357428
 H        -2.3998975782       -0.9760882117        7.3421831983
 H        -4.4677344221        2.8565324296        8.3907365256
 H        -5.8538491065        1.8029491935        7.7152130725
 H        -5.3681952401        3.2816951010        6.9980085603
 H        -5.5588715110        0.8245291703        5.2893118623
 H        -4.0854469940       -0.2597848312        5.3673009693
 H        -5.1958658291       -0.4192058839        6.6495973499
 H        -1.2215526311        0.1444970305        5.2093918191
 H        -0.2735636470        1.1350367608        6.4143448496
 H        -0.4278396319       -2.3280940734        3.9602191169
 H         0.5042236273       -1.1966767138        2.9315322209
 H         0.6941753014        0.6396980014        4.3075970999
 H         2.3289743047        0.2617845487        3.7997422598
 H         2.0434313897        1.0583801521        5.4122120224
 H         3.1357152598       -2.1076511168        6.4678672119
 H         3.4272287093       -0.2603381480        6.3257789347
 H         2.3913861664       -1.0762141783        7.6728030064
 H         0.4867882397       -4.3311923652        2.9823679783
 H         1.5345076466       -3.2919530499        1.8226637079
 H        -0.9253255172       -5.6023571029       -2.4341028230
 H        -2.5000884394       -5.3197120234       -1.8440387340
 H         1.0516131049       -5.1835565368        0.2797943359
 H        -0.2802171812       -6.0479737823       -0.3250766262
 H         0.2439960223       -6.0099849380        1.4357115969
 H        -2.3194192160       -5.2393071730        2.0420537881
 H        -3.0751595984       -4.3740817030        0.8167807759
 H        -2.4168373303       -6.0238195069        0.4000628311
 H        -2.2384854192       -2.9005596046       -3.1059342081
 H        -1.2159069179       -3.9510809894       -4.0848514911
 H        -6.4913874815       -2.4553083800       -3.8212942625
 H        -5.4248689262       -3.1614973023       -2.6889885265
 H        -2.0960720525       -2.6388633030       -5.7868399801
 H        -3.4611931700       -2.3933755200       -6.9812488265
 H        -2.3765063639       -3.9429214360       -6.7212881516
 H        -4.8156282762       -5.0195265014       -6.1137618293
 H        -5.7053162194       -4.4985259181       -4.7858531272
 H        -5.8362725385       -3.4813527521       -6.2863480800
 H        -6.5888764031       -1.2081186510       -1.7111368833
 H        -6.1494061722       -0.2817057543       -3.0794041591
 H        -3.0974843757        1.3294573548       -3.6988668865
 H        -2.8508972835        2.9288490124       -3.0152798407
 H        -5.4852247733        2.8861740050       -1.7476360253
 H        -6.4493341119        1.4012390050       -1.7744573908
 H        -5.3499312599        1.8139589872       -3.0266476405
 H        -3.9042319088        0.1792396136        0.6221551013
 H        -4.5109478266        1.7609776780        0.8610594300
 H        -5.6638840651        0.3405825800        0.4073560328
 H        -0.8024970063        2.4306980570       -4.0883290524
 H        -0.5338540034        2.2644861413       -2.3508602501
 H         3.5648949937       -0.5703475057       -1.4993066808
 H         3.5678560250        1.0892986411       -1.7617377917
 H         1.2395920980       -1.3824594103       -4.4610904532
 H         1.0745852066       -2.0496144282       -2.8685602071
 H         2.5759404002       -1.4077084662       -3.2528195123
 H         1.3778508610        1.1843128694       -4.7845239446
 H         1.6506096609        2.2356268433       -3.4636795652
 H         2.9038695434        1.0242081270       -3.8330390554
 H         4.3685458631        0.5096339440        0.4794940875
 H         2.7678714027       -0.1636834432        0.7952356326
 H         3.9028234924        5.7595471229       -1.7678689557
 H         5.2020423184        4.5658680958       -1.4998629116
 H         3.1923814196        4.5595241632        2.2542685564
 H         1.7216095667        4.5902373201        1.1146680041
 H         3.0698684596        5.5634078913        0.9921913013
 H         5.5750756294        4.4037962606        0.6586410497
 H         5.0780691311        3.3711537959        1.9923784493
 H         5.5438643385        2.6371838023        0.5692456358
 H         3.0464863756        4.0529075480       -3.5768021017
 H         4.4870458707        5.1978391261       -3.8779007355
 H         4.4475522381        2.1774018429       -8.1469286538
 H         5.8827881676        3.2390491079       -7.7531881873
 H         5.8782117667        1.4670576129       -7.5303485490
 H         7.4015809334        4.0351756178       -5.7821671443
 H         6.8359048848        4.7043368677       -4.2472260526
 H         5.8684594884        4.9010863862       -5.7702056290
 H         7.6753287087        1.7989736233       -5.2973998130
 H         6.6959012557        1.2937658687       -3.8406178302
 H         6.2794838256        0.7390442973       -5.4286848452
 Na       -1.3539886054       -0.8591573822       -0.4040922430
