155

 C        -2.7077867956        3.2531086636        6.4565234066
 C        -2.8797049745        1.8662653639        5.9158464381
 C        -3.0068673395        0.6679528415        7.0447152268
 C        -1.7977028119        0.8707248682        8.0503721185
 C        -0.4800683512       -0.0272412141        8.0425381789
 C        -4.3271554589        0.9563707237        7.7748768244
 C        -3.1075775524       -0.6836225711        6.3676542944
 O        -3.0125194689        1.7299603613        4.7437579092
 O        -2.0258905355        1.6502713414        8.9262871893
 C         0.4972961070        0.4373773864        6.9241563294
 C         0.9579685510       -0.8980907536        6.1526512006
 C         1.7248014731       -0.7519445695        4.7350878633
 C         1.2839776040       -1.9470132657        3.7529988751
 C        -0.1250247684       -2.6690781744        3.7989241489
 O         0.7243202318       -1.9149097686        6.7448421496
 O         2.0503554657       -2.3256801062        2.9566062774
 C         1.4063799875        0.6159998420        4.1094702796
 C         3.2405179415       -1.0033160522        4.9673404048
 C        -0.3144313025       -3.8654682909        2.8259035798
 C        -0.7703717507       -3.4184080105        1.4614184593
 C        -0.9512570529       -4.5606705400        0.3347391452
 C        -1.8386032754       -4.0661263295       -0.8346334655
 C        -3.3036133086       -4.5837601569       -1.0353228681
 C         0.4708442003       -4.8622814136       -0.2095785611
 C        -1.6679553601       -5.6838903959        1.0904777354
 O        -1.0197341182       -2.2480315956        1.3027654859
 O        -1.3831845170       -3.2092390306       -1.5701909221
 C        -3.8262579805       -4.1819000507       -2.3292132758
 C        -5.4127846183       -3.7837799034       -2.3577246369
 C        -5.9671488743       -2.9435030657       -3.4656342954
 C        -5.8661317481       -1.4303786492       -2.9652644512
 C        -6.4369258524       -1.1462959001       -1.4920465703
 O        -6.0820944082       -4.1306578248       -1.4063675238
 O        -5.4420950367       -0.6223598837       -3.6794536617
 C        -5.1081232481       -3.0645056504       -4.7303416968
 C        -7.3895409052       -3.4294436105       -3.7389590269
 C        -5.9924933853        0.2721485510       -0.9574521623
 C        -4.4465955789        0.2807991138       -0.7801079336
 C        -3.7993022558        1.7682744046       -0.7867746052
 C        -2.2874066196        1.5812323710       -1.0058142859
 C        -1.7705454911        2.1222438251       -2.4231622091
 C        -4.4845176486        2.6820082186       -1.8325703721
 C        -3.9857924065        2.3272683659        0.7041829919
 O        -3.7785234861       -0.7744084094       -0.8756306680
 O        -1.4331601435        1.1196284634       -0.2876681133
 C        -0.3297627810        1.6760563156       -2.7164360641
 C        -0.2851371116        0.1987338043       -3.0633389383
 C         1.0991595056       -0.4347420407       -3.3349550084
 C         1.6812311636       -0.5780607373       -1.8267115990
 C         3.1288412450       -0.1990362370       -1.3602123089
 O        -1.3027355805       -0.4837595885       -3.1253882410
 O         1.0949433755       -1.1599512150       -0.9612181514
 C         0.9008997207       -1.7808200858       -3.9533741946
 C         1.9681605332        0.4163996335       -4.2565946407
 C         3.1683849424        0.3642692474        0.1545522988
 C         2.9630286221        1.8914643538        0.0436272094
 C         4.1310834269        2.8921170468       -0.4770518545
 C         3.6642935027        3.3832994961       -1.8656606498
 C         4.3591916486        4.5559106941       -2.4844278597
 C         4.0591421056        3.9934860728        0.6547352958
 C         5.5352761554        2.2884036165       -0.4772568139
 O         1.9246148599        2.4529446120        0.3065363456
 O         2.7539096713        2.8255518587       -2.3946393494
 C         4.4155303313        4.3373847399       -4.0193169844
 C         5.2199471013        3.0528450443       -4.4606303313
 C         5.8437331581        3.0851703321       -5.8181880236
 C         4.6873501173        3.4993964367       -6.9320123964
 C         5.0903001962        3.7212871821       -8.3706447143
 O         5.3407367129        2.1372874137       -3.6581327410
 O         3.5876314531        3.6025100236       -6.5615223506
 C         6.9307564469        4.1603796593       -5.7696594007
 C         6.4563840596        1.6487404791       -6.1856638564
 H        -3.3050630098        3.4971205179        7.2588252152
 H        -1.7073720469        3.4309297865        6.8493440304
 H        -2.8888612180        3.8939350461        5.6152629604
 H         0.0067491264       -0.0063133969        8.9975418247
 H        -0.8322601058       -1.0720260212        7.9780364351
 H        -4.1036182150        1.8421237282        8.2566435621
 H        -4.5324038940        0.2502262607        8.5979560438
 H        -5.1870203913        1.1209804074        7.1000307869
 H        -4.1305711922       -0.9302423040        6.1301186226
 H        -2.5589859540       -0.6666404344        5.3707856228
 H        -2.5425804480       -1.5362946357        6.8585120015
 H         0.0418006393        1.2401541442        6.3148272060
 H         1.3835180302        0.8737098645        7.2704952358
 H        -0.5340238792       -2.8530902837        4.8021077806
 H        -0.8374429472       -1.8589659353        3.5229923012
 H         0.3013323512        0.6803831997        3.9116912318
 H         2.0533716346        0.8259844184        3.1684048167
 H         1.6648456676        1.3403959197        4.8695499678
 H         3.5410370732       -0.5574057534        5.9271394583
 H         3.3867524813       -2.1273562124        5.1045670428
 H         3.9603547331       -0.6291335296        4.2162048753
 H        -0.9132180937       -4.4922907326        3.4292421744
 H         0.5841706955       -4.4152952692        2.7339742622
 H        -3.4047681975       -5.6025855043       -0.6534685638
 H        -3.8131761156       -3.9865640986       -0.2228040882
 H         0.9437678148       -3.9920027888       -0.7378776244
 H         0.4834930584       -5.7937670133       -0.7748721000
 H         1.1337903063       -4.9634659461        0.6196518716
 H        -1.0454329001       -5.8911502175        1.9724518723
 H        -2.5958083365       -5.3243888285        1.4857967760
 H        -1.6976444969       -6.6717075374        0.6730966998
 H        -3.0815859195       -3.4666346036       -2.8448894311
 H        -3.7152657958       -5.0694861937       -2.9369407841
 H        -7.5310914582       -1.2118115887       -1.5210596249
 H        -6.1626080398       -2.0286191743       -0.8995895582
 H        -4.0241668429       -2.8396787458       -4.4455799909
 H        -5.3177040381       -2.3414289378       -5.5186895490
 H        -5.2047957620       -4.0169104450       -5.2463900692
 H        -7.2551984761       -4.3682322875       -4.3013133287
 H        -8.0862429546       -3.5103718370       -2.8371282305
 H        -7.9997533572       -2.8092009055       -4.3755936198
 H        -6.6189058391        0.4631374352       -0.0578863038
 H        -6.2861534968        1.0021210573       -1.7120350282
 H        -2.3774871154        1.5854072005       -3.1127392597
 H        -2.0959681023        3.1923766600       -2.5461686696
 H        -3.9418712914        3.5749851401       -1.7526081170
 H        -5.4519958186        2.9408263674       -1.6231779307
 H        -4.4612242059        2.3151763505       -2.8788080849
 H        -3.3702200391        1.7029991700        1.3563097462
 H        -3.4998407782        3.2481540963        0.8771937401
 H        -5.0717525899        2.2743245428        1.0523083283
 H         0.0393216754        2.1360299761       -3.6778804667
 H         0.4252332048        1.7720462030       -1.9363887273
 H         3.6343235675       -1.0864275936       -1.3886039140
 H         3.5406100282        0.5644290558       -2.0999944574
 H         0.3624595779       -1.6945016557       -4.9152978857
 H         0.4130518450       -2.3445783953       -3.2443539754
 H         1.8623360765       -2.2662974523       -4.0946013113
 H         1.7174515714        0.4325773416       -5.3965641203
 H         2.0193010654        1.4858781313       -3.9665290095
 H         3.0201158984        0.1310434577       -4.2960512408
 H         4.1208036115        0.0650414030        0.6561079321
 H         2.2607138148       -0.1015746395        0.6207691074
 H         3.9204941970        5.5168663614       -2.2932980380
 H         5.3686072273        4.6247330846       -2.0651037372
 H         4.5885503704        3.5662077170        1.5268818437
 H         2.9812041467        4.1225197882        0.8187963363
 H         4.5673044747        4.9185483337        0.3412275108
 H         6.3580486050        3.0625594988       -0.6157119931
 H         5.4331613938        1.8797060697        0.5100430668
 H         5.6679546649        1.5270095469       -1.3296548722
 H         3.4424094250        4.1387999806       -4.4499074263
 H         4.7284112758        5.3500864573       -4.4214774521
 H         5.1537399323        4.7529216283       -8.7094238341
 H         6.0752615583        3.3281756704       -8.5516225172
 H         4.3799904691        3.2089542501       -9.1066664045
 H         7.5568492630        3.9498056570       -6.6297981172
 H         7.5303293194        4.1615179354       -4.8728929600
 H         6.5723408590        5.2107037675       -5.8476046490
 H         7.1843353749        1.4345456467       -5.4958206467
 H         5.6643820332        0.8440953255       -6.1549276949
 H         6.8472631326        1.7381007070       -7.1362401392
 Na       -1.3205693136       -1.1205631307       -0.8368367968
