155

 C        -2.3814218928        3.1022634393        6.2389027137
 C        -2.7759120291        1.6601489854        6.0345459378
 C        -2.7595464792        0.5445005017        7.1738312813
 C        -1.5905253036        0.7979980871        8.1413185470
 C        -0.3161504581       -0.0553180043        8.0384274045
 C        -4.1021973833        0.8265027379        7.9980604887
 C        -2.8578533445       -0.8515481344        6.5993995443
 O        -3.4135198739        1.3910327109        5.0498935768
 O        -1.6883594636        1.7104648775        8.9780054883
 C         0.2398590203        0.2763538640        6.6254387047
 C         1.0042722847       -0.8768185208        6.0374732529
 C         1.5949466891       -0.8247389734        4.5426232506
 C         1.3103539798       -2.1816975395        3.7363630309
 C        -0.1906694872       -2.5513275275        3.6670539977
 O         1.0606909018       -1.9364177767        6.5914669050
 O         2.2020450624       -2.7224608990        3.0728931104
 C         0.9383417103        0.3863461913        3.8021864556
 C         3.1335014684       -0.5763767702        4.5504380498
 C        -0.5681722002       -3.7632658201        2.9296492744
 C        -0.9879115974       -3.4139037192        1.5588490405
 C        -1.0879405445       -4.5060629712        0.4822304593
 C        -2.1110754616       -4.1138594167       -0.7504056585
 C        -3.3563636303       -4.9519887969       -1.1956511919
 C         0.4361159424       -4.4477048797       -0.0043079864
 C        -1.4565346137       -5.8451960697        1.2011929351
 O        -1.3164182318       -2.2779833888        1.2678587713
 O        -1.7727909754       -3.1126346605       -1.3909727699
 C        -4.0994862618       -4.2257179960       -2.2843272914
 C        -5.6289620561       -3.7829841144       -1.9652678111
 C        -6.3894380152       -2.9094936248       -3.0229698796
 C        -6.1234304175       -1.3489410170       -2.6004258237
 C        -6.4768397196       -0.8595325363       -1.1470844809
 O        -6.0390849244       -3.8904100240       -0.8632334796
 O        -5.5839325341       -0.5952217603       -3.3757078382
 C        -5.8501338944       -3.1129234015       -4.5337674905
 C        -7.8985024631       -3.2258382911       -2.8090166276
 C        -5.8561757401        0.5341215426       -0.8474663177
 C        -4.2883339265        0.5022211368       -0.9162314178
 C        -3.5850730290        1.7734186349       -0.7639247141
 C        -2.0397242987        1.7484097182       -1.1368026387
 C        -1.4624225761        2.3266790325       -2.4425109978
 C        -4.2657587303        2.8765536638       -1.6000303770
 C        -3.6712885809        2.1619984137        0.7465603730
 O        -3.8259216911       -0.6136017938       -0.7383117352
 O        -1.2752157247        1.2969152568       -0.3452574713
 C        -0.0932470229        1.7360774633       -2.8031363395
 C        -0.2281268598        0.3094553563       -3.2672520081
 C         1.1635247820       -0.5503715944       -3.5091862752
 C         1.7296437790       -0.6980042196       -2.0566028566
 C         3.1388166296       -0.3133310616       -1.6700489041
 O        -1.2818725875       -0.3092482273       -3.2448782534
 O         0.9909212221       -1.0968701898       -1.1826523732
 C         0.8114453155       -2.0744012537       -3.8923753902
 C         2.1678896694        0.0245977540       -4.4860694567
 C         3.2298390242        0.1268148099       -0.1629076974
 C         2.9297446515        1.6165478867        0.0425450963
 C         4.1084900632        2.7438350433       -0.5627967834
 C         3.8115659440        3.2425959354       -2.0355626249
 C         4.6213329659        4.4567654055       -2.5328619221
 C         3.8541031717        3.8871876528        0.5466443313
 C         5.5528309909        2.1159788875       -0.4252704211
 O         1.9410796312        2.0402816328        0.6605779790
 O         2.9098281414        2.7716437220       -2.7150523828
 C         4.8004124023        4.5883930370       -4.0680146517
 C         5.4648083893        3.3049200154       -4.6252669556
 C         5.8588920096        3.2311803970       -6.1036475859
 C         4.7061196117        3.7017486001       -7.1083975549
 C         5.0137686867        3.9989686212       -8.5468154727
 O         5.5287339278        2.3262594724       -3.8982471326
 O         3.5863607938        3.7358555740       -6.6443672612
 C         7.1567145079        4.2187659830       -6.3148862528
 C         6.2429892649        1.7872447847       -6.3748006296
 H        -2.1954440933        3.3021449110        7.3404700217
 H        -1.4135320709        3.2834442290        5.7478355192
 H        -3.0362267603        3.8440405001        5.9143171832
 H         0.3908699259        0.2690504238        8.7725561738
 H        -0.5167309635       -1.1710763978        7.9455245286
 H        -4.0813964628        1.7754020334        8.4670398240
 H        -4.3233207995        0.0027117515        8.7407047569
 H        -4.9614226904        0.7034651812        7.2694433776
 H        -3.5389038678       -0.8513558009        5.7637062212
 H        -1.8764361777       -1.2930654514        6.1435846913
 H        -3.3166866273       -1.4219726808        7.4334718535
 H        -0.5994313529        0.4365428086        5.8804068753
 H         0.7546601961        1.2044874361        6.6020970287
 H        -0.5164635548       -2.5141445501        4.6976616920
 H        -0.7984962642       -1.7181746190        3.2649634534
 H        -0.1598195060        0.2037537518        3.6566855157
 H         1.3525381076        0.4527928463        2.7659967741
 H         1.1633298139        1.2582940459        4.3697117447
 H         3.5609660215       -0.5061311669        5.5418460611
 H         3.6907276006       -1.4624281348        4.0872417516
 H         3.4710241233        0.2531141255        3.8769779208
 H        -1.3935652219       -4.2590949936        3.4494326940
 H         0.2552115395       -4.4337293706        3.1157301440
 H        -3.0921207316       -5.9614570561       -1.5190905085
 H        -3.9005842914       -5.1908312024       -0.2718621258
 H         0.5421681828       -3.4397694554       -0.3950523710
 H         0.5123323035       -5.0678079020       -0.9063517050
 H         1.1707885334       -4.8345222025        0.6101239993
 H        -0.6536041235       -6.0735029704        1.9794519962
 H        -2.4586653481       -5.7629578492        1.6236014301
 H        -1.5846978225       -6.6432763379        0.5050768188
 H        -3.5857772632       -3.3190028913       -2.6593904674
 H        -4.1366900377       -4.8699787964       -3.1046117383
 H        -7.5658621087       -0.9380600281       -1.1508374203
 H        -6.0693104088       -1.6163328578       -0.4784480013
 H        -4.8507344101       -2.6059506071       -4.6623998669
 H        -6.3719259893       -2.4672258128       -5.2180809277
 H        -5.9915977542       -4.0905644253       -4.9341066879
 H        -8.0861205132       -4.2554602310       -3.1688586574
 H        -8.2274314261       -3.2673329414       -1.7056660387
 H        -8.5478468081       -2.5724810779       -3.3388809646
 H        -6.1572420033        0.7736616854        0.1675389412
 H        -6.2613793506        1.2526117062       -1.5391671087
 H        -2.2846903352        2.3072835454       -3.1502066472
 H        -1.3446600086        3.4556557735       -2.2763405002
 H        -3.7310221555        3.7664621367       -1.5395649646
 H        -5.2349079255        3.0380285547       -1.2314545680
 H        -4.3660396821        2.6368342119       -2.6493654258
 H        -3.2980728831        1.2903712729        1.2842354745
 H        -3.1301461364        2.9925015419        1.1188248257
 H        -4.7462889595        2.3345287805        1.0566211926
 H         0.4310888691        2.3887933269       -3.5349910611
 H         0.5090806598        1.6406868392       -1.9008735170
 H         3.6899784080       -1.1395019918       -1.8887038495
 H         3.4718715136        0.6438267233       -2.2430961748
 H         0.5849973093       -2.1513641246       -4.9837664480
 H         0.0041794389       -2.3971603319       -3.2496574091
 H         1.7500212266       -2.6650057885       -3.8724547968
 H         1.7951350052        0.0739161987       -5.5472700258
 H         2.4873025629        1.1066248495       -4.3360810947
 H         3.1083815783       -0.4964029065       -4.5159348848
 H         4.2551103386       -0.1750593222        0.1801352128
 H         2.3839435062       -0.3990416487        0.4035300705
 H         4.0561496621        5.2391586591       -2.0555511374
 H         5.5837078537        4.4189056796       -2.0353300025
 H         3.5310817785        3.4841861653        1.4808234314
 H         2.9370993808        4.4187910833        0.2397341350
 H         4.7147486386        4.5096235264        0.4964831252
 H         6.3068257489        2.9486038593       -0.3630711474
 H         5.5842592815        1.5951563094        0.5083962389
 H         5.7293511233        1.4812546504       -1.3338147268
 H         3.7820341715        4.6214390306       -4.4906895229
 H         5.4849797573        5.3566679814       -4.3813953761
 H         6.0527376766        3.9854213790       -8.7774458107
 H         4.5660068490        3.2822366785       -9.2957560092
 H         4.4456122170        4.9547487123       -8.8545844496
 H         7.4113704427        4.0311669803       -7.3523549829
 H         8.0456323018        3.8614334161       -5.8203733949
 H         7.0871012521        5.3190915824       -6.1838786984
 H         6.8403854327        1.3981213387       -5.5565478533
 H         5.2219476572        1.2734599338       -6.2750573048
 H         6.7222175420        1.7279678036       -7.2990623394
 Na       -1.4223575388       -0.9922026452       -0.7713683240
