155

 C        -3.6273471161        2.4349619027        6.5021798362
 C        -3.2223616410        1.0025048408        6.6622113707
 C        -2.5556226313        0.5965206865        8.0880366360
 C        -0.9097977745        0.7380714042        8.0007392820
 C        -0.0676526551       -0.3976220587        7.4654642248
 C        -3.0890855362        1.3836697748        9.2416265046
 C        -2.9396689003       -0.8607632228        8.0735469085
 O        -3.1186263563        0.2084878461        5.7429001237
 O        -0.3345331564        1.7914887705        8.2662717783
 C         0.0412013781       -0.0930164018        5.9244239199
 C         1.2196748767       -0.9207461236        5.1709655109
 C         1.2212903525       -1.1420074733        3.6346400502
 C         0.6169108504       -2.4868614881        3.2849865589
 C        -0.8468989566       -2.7234186029        3.8002089698
 O         2.0431744763       -1.4208052522        5.8698124374
 O         1.0374982513       -3.3506508759        2.4753958054
 C         0.3617116531        0.0187827736        2.8965487587
 C         2.7442806289       -1.1332033531        3.0742194780
 C        -1.6253853570       -3.6283707478        2.7449890310
 C        -1.3663334859       -3.3065284754        1.2706154207
 C        -1.4447177099       -4.3876727905        0.1028752514
 C        -2.6768851670       -3.9647262119       -0.7234001521
 C        -3.8061948956       -4.8838705179       -1.0153964550
 C        -0.1223990386       -4.1946404530       -0.7582486574
 C        -1.6171994980       -5.8664211986        0.5300666722
 O        -1.2691946004       -2.1512106483        0.9509410057
 O        -2.6522230291       -2.8794111379       -1.2991167018
 C        -5.1452777481       -4.2772456909       -1.3753733452
 C        -5.6336972111       -3.3171609975       -0.2894717509
 C        -6.9196932325       -2.6075347025       -0.6345332160
 C        -6.3415780928       -1.2197449679       -1.3435330692
 C        -6.0761532743       -0.0647918613       -0.3844364195
 O        -5.1535480294       -3.1655301153        0.8116404731
 O        -6.0943595463       -1.0627645287       -2.5458500362
 C        -7.6570142396       -3.3248187443       -1.7508118032
 C        -7.8527659951       -2.3158096762        0.5862768413
 C        -5.3783199118        1.0572242276       -1.1370167356
 C        -3.8028904309        1.0346493183       -0.7657389643
 C        -2.8767407267        2.2950630304       -0.5313615202
 C        -1.5280675284        1.9534130466       -1.3954747619
 C        -1.4646517666        2.5044126746       -2.7990520525
 C        -3.5006986862        3.5783312030       -1.0020164608
 C        -2.6954706661        2.3832901532        1.0462784611
 O        -3.2743113577       -0.0800278990       -0.7111997298
 O        -0.7210938337        1.2649180476       -0.8799953908
 C        -0.3013991057        1.9179756050       -3.6156075653
 C        -0.3461597863        0.4029587678       -3.7346271805
 C         1.0132009618       -0.3328684562       -4.0724481646
 C         1.7404555207       -0.5546994344       -2.6420514010
 C         3.3001438032       -0.2966038021       -2.6253743114
 O        -1.3709117690       -0.1779932899       -3.3884090638
 O         1.1734186889       -1.0772437601       -1.7334515790
 C         0.5389269284       -1.8118171747       -4.5905517917
 C         1.8960766013        0.4830289392       -5.0681603235
 C         3.9559580424       -0.2559096048       -1.2505170326
 C         3.7602832278        0.9951019211       -0.2933404981
 C         4.4668845502        2.3522258849       -0.7131693523
 C         4.0555088925        2.9568098610       -2.0797823232
 C         4.8794881152        4.0705562125       -2.6546103373
 C         4.1086968174        3.4716031815        0.3339806668
 C         5.9799772084        2.0246597577       -0.6666709548
 O         3.2614959627        0.7697149259        0.8108186701
 O         3.0289122098        2.5734053040       -2.6404348404
 C         4.6349980343        4.1644845317       -4.1559636666
 C         5.2425391114        3.0584342436       -4.9663227756
 C         5.8854503736        3.4502949084       -6.4133507204
 C         4.5894512003        3.8793710719       -7.2083815327
 C         4.6338211554        4.4977098291       -8.6529851243
 O         5.1980774767        1.8815379719       -4.7210170414
 O         3.4567521763        3.5911231001       -6.7087828920
 C         6.8943147189        4.5767650533       -6.2650162446
 C         6.4978147926        2.2478964489       -7.1363517651
 H        -4.7606102916        2.4876284765        6.1702207510
 H        -3.5448595538        3.1125692246        7.3607229591
 H        -3.2028027439        2.7925194912        5.5798216141
 H         0.9259426905       -0.4631289307        7.9682572716
 H        -0.4315212360       -1.4688731739        7.5475071592
 H        -2.7036712033        2.3318624424        9.1052788439
 H        -2.7629013427        1.0312899330       10.2298553896
 H        -4.1789532037        1.4930955621        9.3752936653
 H        -3.9457172437       -0.9067840186        7.8594250203
 H        -2.4514851619       -1.4728679339        7.2942921123
 H        -2.7762870097       -1.2811595608        9.0319066140
 H        -0.9107823706       -0.3425225976        5.3481554864
 H         0.2123500904        0.9871386521        5.7254613132
 H        -0.9357028675       -3.4235282193        4.6524569249
 H        -1.3440805531       -1.8017302545        3.9477616135
 H        -0.4833637756        0.2647428080        3.4851432745
 H        -0.0210456667       -0.3520132355        1.9452416235
 H         0.9882524857        0.8063143323        2.7307427500
 H         3.3918390627       -1.4623113303        3.8016583324
 H         2.9636091425       -1.6996976326        2.1755913548
 H         3.0109285083       -0.1283413128        2.8615653398
 H        -2.7001962099       -3.4821358076        3.0323840783
 H        -1.2878275915       -4.6173642973        3.0357900500
 H        -3.4212345084       -5.5506609014       -1.7650137397
 H        -4.1936866461       -5.4639091678       -0.1756727028
 H         0.2455208439       -3.1617314608       -0.8304395414
 H        -0.3586019442       -4.7442106241       -1.7192575850
 H         0.6519210179       -4.7729215863       -0.2892170747
 H        -0.6224008473       -6.1520446777        1.0229022929
 H        -2.4405202826       -6.0632538073        1.2126888794
 H        -1.8438378344       -6.4643273981       -0.3752977681
 H        -4.9775692973       -3.5470408141       -2.1204188827
 H        -5.9187711310       -4.9962526603       -1.6538386709
 H        -7.0954046418        0.2142376744       -0.1803492426
 H        -5.5965258200       -0.4449689302        0.5451090034
 H        -6.9002120629       -3.3978479872       -2.5929463173
 H        -8.3315835789       -2.6136207616       -2.2080484730
 H        -8.1686812399       -4.2080180998       -1.5000888283
 H        -8.4541108562       -3.1781383424        0.6932968464
 H        -7.1882165697       -2.2211727522        1.4794230670
 H        -8.3445792123       -1.4350925390        0.4151120468
 H        -5.8898342029        1.9930036088       -0.9006629678
 H        -5.5072483040        0.9958095442       -2.1849460591
 H        -2.4462765067        2.1881218839       -3.2091215264
 H        -1.3462863842        3.6244322270       -2.7066319863
 H        -2.8421443679        4.5099942297       -0.9385086668
 H        -4.4166630230        3.7765838125       -0.3287521023
 H        -3.8231773488        3.5141292215       -2.0679098692
 H        -1.7945061346        1.8835732510        1.2842980577
 H        -2.5074882989        3.3718073232        1.3598124723
 H        -3.6663005330        2.0030560928        1.4807521129
 H        -0.2920621664        2.4208407642       -4.6055412205
 H         0.6856577002        2.1212076236       -3.2508016725
 H         3.7157123422       -1.1179059088       -3.0622718200
 H         3.6636937266        0.5084188956       -3.3766656213
 H        -0.0303511829       -1.6426593873       -5.5327039125
 H        -0.0818513790       -2.1329262725       -3.7693284952
 H         1.3594713830       -2.5257387229       -4.7776179128
 H         1.3014495276        0.6810142833       -5.9423476700
 H         2.2905483919        1.3903618756       -4.6095567611
 H         2.6663952508       -0.1625472848       -5.2997231680
 H         5.1010017372       -0.3963242723       -1.4203816038
 H         3.5695159696       -1.1839524900       -0.7351557743
 H         4.7227608138        5.1021499649       -2.2993841485
 H         5.9120009896        3.9234020440       -2.4095585117
 H         4.6581895740        3.2288174000        1.2700794067
 H         3.0361785613        3.3344615874        0.5288706151
 H         4.3730584334        4.4903430747        0.0479962423
 H         6.6810848070        2.8353170642       -0.7550737689
 H         6.2597792976        1.6254881685        0.2586305014
 H         6.3015935133        1.3154098584       -1.3910510809
 H         3.5805388166        4.0777074748       -4.3872152039
 H         4.9078430562        5.2711201358       -4.3561956609
 H         3.9662229736        5.2797914446       -8.8696709621
 H         5.6045291757        5.0500665500       -8.8300017080
 H         4.4641494556        3.6563351819       -9.3446728527
 H         7.5201438729        4.6665826099       -7.1659123498
 H         7.6120263612        4.3560882595       -5.4788224044
 H         6.4419456583        5.5506668866       -6.0501132526
 H         7.0496183433        1.6604654016       -6.3174861391
 H         5.5767431940        1.7433762745       -7.2979612811
 H         7.0611293654        2.5039023228       -8.0961933043
 Na       -1.2155922765       -1.2760723297       -1.1482380772
