155

 C        -3.6545281689        2.4602050063        6.6868726788
 C        -3.2103430665        0.9722644402        6.9007951381
 C        -2.4657837122        0.4831327721        8.1369917558
 C        -1.0106381044        0.7390684331        7.7780498795
 C        -0.0943049460       -0.4028396013        7.2391158468
 C        -2.8527739774        1.3339911165        9.2955014677
 C        -2.8849190622       -0.9242140050        8.5649926795
 O        -3.2420634725        0.2224106527        5.9483643214
 O        -0.5484989881        1.8574329881        7.8623427200
 C         0.1811857681       -0.1723687970        5.7973803815
 C         1.2790831027       -1.0313629582        5.1685332840
 C         1.3025861038       -1.1477443214        3.4971604444
 C         0.5847990028       -2.5609435028        3.1415381987
 C        -0.9411601786       -2.7058267347        3.5598327127
 O         2.1502200722       -1.5435780825        5.8487798912
 O         1.2557745892       -3.4672098743        2.7298730122
 C         0.5579818957       -0.1001808351        2.6676655015
 C         2.7706002248       -1.2201173872        3.2261254492
 C        -1.7843604904       -3.6847781463        2.6328935092
 C        -1.6264561024       -3.2638159445        1.2520132158
 C        -1.5017362651       -4.3133074174        0.0179962435
 C        -2.7418417749       -4.0386596606       -0.8309504825
 C        -3.9354552761       -5.0852291941       -0.8723106617
 C        -0.1203253315       -4.1112605067       -0.6675154045
 C        -1.3509188760       -5.6978006771        0.6371268957
 O        -1.4195091209       -2.0687309358        1.0174376282
 O        -2.8020782298       -3.0289757378       -1.5282492111
 C        -5.1615914463       -4.2729387525       -1.3728245909
 C        -5.7560262893       -3.4163967106       -0.1639985024
 C        -7.0483180939       -2.4949110757       -0.3153151323
 C        -6.4776990596       -1.0807221378       -1.0349127521
 C        -6.0804127618        0.1715504674       -0.1712130713
 O        -5.0612236915       -3.2721648686        0.8266610017
 O        -6.3750168708       -0.9772249156       -2.2058436948
 C        -8.0824986983       -2.9213118902       -1.3475601134
 C        -7.7374200121       -2.1869971368        1.0536779163
 C        -5.1996456161        1.2026614676       -0.9703990321
 C        -3.7016796564        1.0025814921       -0.9045880848
 C        -2.8011096144        2.3022963036       -0.6586257413
 C        -1.5227896460        2.1541128264       -1.3477861518
 C        -1.5111776220        2.5673318240       -2.9102223833
 C        -3.5586918515        3.6478080409       -1.0126255142
 C        -2.5693182606        2.2968551960        0.8697206839
 O        -3.2386869665       -0.0718975787       -0.7447029749
 O        -0.6536948299        1.4341163716       -0.8483543335
 C        -0.2974939348        2.0131148049       -3.5901146270
 C        -0.2700009286        0.4272505225       -3.6330552321
 C         1.0169318697       -0.3766772441       -4.1498092688
 C         1.8637010585       -0.7071819006       -2.7785609902
 C         3.3728017089       -0.3560451763       -2.7754987824
 O        -1.2133195688       -0.1911949150       -3.2575424343
 O         1.2837834858       -1.3490611591       -1.8928959479
 C         0.6419158319       -1.6203644290       -4.8110562680
 C         1.7925767571        0.5560824916       -5.2431805532
 C         4.0382295860       -0.4035267683       -1.3573332411
 C         3.8363664864        0.8135079046       -0.4847105185
 C         4.6875566812        2.3412222705       -0.7574576082
 C         4.0637630287        2.9080168770       -2.0271452353
 C         4.8297671037        3.9681964274       -2.7493460401
 C         4.2618509315        3.1657295569        0.4346913229
 C         6.1759343414        2.1378375507       -0.7579329700
 O         3.0619933421        0.8605643062        0.4451087555
 O         2.9416718929        2.5891443673       -2.3983746343
 C         4.4930066374        4.1013074308       -4.2902338732
 C         5.2237930183        2.9565637333       -5.0379773372
 C         5.7390785378        3.3826468786       -6.4415957835
 C         4.4330080060        3.8900786085       -7.3425468890
 C         4.7172605388        4.4629446790       -8.6805107552
 O         5.1709307442        1.8075397078       -4.5596281891
 O         3.3792231171        3.7165404322       -6.8513223336
 C         6.7129641129        4.5808419846       -6.2494076683
 C         6.4919068415        2.2407583098       -7.1654695729
 H        -4.6074429312        2.7576891711        6.8678923344
 H        -2.9904940221        3.0186968735        7.3348606954
 H        -3.5015545100        2.7668551270        5.6626667119
 H         0.8508390547       -0.4283770497        7.7856692531
 H        -0.5783963407       -1.3381894284        7.2755856714
 H        -2.4819236002        2.3998100964        9.3409175904
 H        -2.5610010671        0.7972013033       10.1941092408
 H        -3.9241926555        1.3464920718        9.4177837796
 H        -3.9583111961       -0.9687813324        8.9962589779
 H        -2.7706092668       -1.6102938144        7.7190926502
 H        -2.2275591217       -1.2363051491        9.4532358174
 H        -0.6569837225       -0.2175211065        5.1558674856
 H         0.5187793293        0.8655487120        5.6148792407
 H        -1.0277142272       -3.2075485842        4.5270195485
 H        -1.4783872253       -1.7054492437        3.5945251538
 H        -0.3528340232        0.0913658032        3.2069350581
 H         0.1986502542       -0.4625953556        1.7025010663
 H         1.1513092677        0.8400600361        2.5604634533
 H         3.0488419530       -2.3104972119        3.3958145941
 H         3.0343601968       -1.0310335412        2.1960228085
 H         3.3803287296       -0.5080281290        3.7729967338
 H        -2.7831857758       -3.6607132283        3.0304128803
 H        -1.4131895307       -4.7164600359        2.7784276224
 H        -3.7681717128       -5.8031428959       -1.7261905738
 H        -4.2851437091       -5.6745360802       -0.0406457226
 H        -0.1955712376       -3.1143199914       -1.2294094408
 H         0.0693503867       -4.9047365873       -1.3060914829
 H         0.6839508745       -4.1494897680        0.0873032689
 H        -0.5195932404       -5.6882695220        1.2523041435
 H        -2.2867882764       -6.0744273618        1.1057839229
 H        -1.2965173152       -6.4238224458       -0.1841465148
 H        -4.8349833466       -3.7902158997       -2.3811508331
 H        -6.0253620337       -4.9720242946       -1.5301785796
 H        -6.9671580719        0.6450652074        0.3031564343
 H        -5.4640043683       -0.2473434560        0.6029679168
 H        -7.8226214143       -2.7984180651       -2.3408878286
 H        -8.9981930545       -2.3207603759       -1.2635974938
 H        -8.3535625066       -3.9715697429       -1.0485707185
 H        -8.0064830579       -3.1228694706        1.5449082703
 H        -7.0086187500       -1.7581771014        1.6925597036
 H        -8.5908481627       -1.4995661748        0.7697916205
 H        -5.5595602918        2.1984394409       -0.7539495584
 H        -5.3229313472        1.2227150204       -2.0909567159
 H        -2.4523587840        2.1668885502       -3.3147402515
 H        -1.4646157166        3.6259702211       -2.9305375350
 H        -2.9089012398        4.4643616722       -0.9917789560
 H        -4.3361005488        3.8380612695       -0.3794664342
 H        -3.9011286991        3.6208536023       -2.0427246338
 H        -2.0942734329        1.3268271469        1.0312828036
 H        -1.8290062767        3.0174378737        1.2597833545
 H        -3.4870065357        2.5066403930        1.3174876956
 H        -0.2422890399        2.4277534243       -4.6052253734
 H         0.6821753506        2.4074582212       -3.1503893302
 H         3.8167865153       -1.1497883114       -3.5302903422
 H         3.6094061966        0.5468224813       -3.2625971398
 H         0.5821487904       -1.4514053837       -5.9003755058
 H        -0.2711326074       -2.0252664696       -4.3361781108
 H         1.5209103902       -2.2895482084       -4.7197013557
 H         0.9913286256        0.8221775661       -5.9914340728
 H         2.0650395176        1.5057761794       -4.7476583137
 H         2.6792719276       -0.0027704256       -5.6697885908
 H         5.0935382145       -0.5236179986       -1.4613925753
 H         3.5875909153       -1.1602304943       -0.7558568875
 H         4.6885139409        4.9426861994       -2.3046080711
 H         5.9017672761        3.7773731016       -2.5499324197
 H         4.2076736193        2.5256092448        1.3181667316
 H         3.2556940168        3.5422272782        0.3373899096
 H         4.9762957341        3.9842467680        0.5515124771
 H         6.8210483929        2.9439697276       -0.4148422072
 H         6.5175811072        1.3729732005       -0.0166187432
 H         6.6383904137        1.6935182829       -1.6845092551
 H         3.3517579064        4.2092000066       -4.2438407851
 H         4.7553403411        5.0663207139       -4.5890049660
 H         4.0687207760        5.3788745700       -8.7296935498
 H         5.6965031580        4.8648410983       -8.8500759145
 H         4.3753864889        3.7639510396       -9.4742430849
 H         6.9475555540        4.9717150180       -7.2245764887
 H         7.7091320095        4.2662147630       -5.9381617506
 H         6.3319030600        5.4121321862       -5.6864800494
 H         7.1493961941        1.8083770576       -6.5258959334
 H         5.8480499065        1.5199915623       -7.7039827382
 H         6.9791353206        2.8331806182       -7.8294779800
 Na       -1.1131259121       -1.1365738099       -1.2913711870
