155

 C        -7.2228308120        1.1504318579        4.2832569761
 C        -5.9001548504        0.7034504666        3.6858940720
 C        -5.6879013165       -0.6971643174        3.1614100021
 C        -5.7352107435       -0.4273587639        1.5334706475
 C        -6.9632634777       -0.8854769786        0.7526628519
 C        -4.1895996860       -1.2778623302        3.4546547727
 C        -6.5939608176       -1.7490594733        3.7072825245
 O        -5.0517954460        1.5573212042        3.6997637254
 O        -4.8772137311        0.1678625485        0.9791486466
 C        -7.4548766033        0.0370647321       -0.4110476229
 C        -8.3248033644        1.2016538707        0.2197946165
 C        -8.9053248384        2.3267237471       -0.6350965197
 C        -7.5221529398        3.1768243915       -1.0753345493
 C        -7.0544253590        4.2906364813       -0.0286029731
 O        -8.3133593487        1.2716049088        1.4527021059
 O        -7.0475772382        2.9693155390       -2.1460553270
 C        -9.6286996090        1.6956773714       -1.8469984639
 C        -9.8809769273        3.2025218227        0.2285783035
 C        -5.6090613976        4.7249512080       -0.4246215703
 C        -4.4430160350        4.0633593149        0.4178953721
 C        -3.1394453322        4.8469569029        0.3456536598
 C        -2.0281603311        3.7427710544        0.3544300174
 C        -1.2672950340        3.2802006506       -0.8629984925
 C        -3.0546624778        5.6952609738       -1.0654135491
 C        -2.9971068852        5.8444666402        1.4403582842
 O        -4.6502281918        3.0955904071        1.1292699705
 O        -1.8728189773        3.0633344539        1.3798387619
 C        -0.3918479023        2.1169135605       -0.5742001340
 C        -1.3286047545        0.9478194816       -0.4546226565
 C        -0.6190746135       -0.3212221661        0.0040301388
 C        -0.4699769280       -0.2014682027        1.5864470351
 C         0.8880233256       -0.1528009058        2.1901197183
 O        -2.5061180929        0.9200069658       -0.7116611342
 O        -1.4866337639        0.0248152493        2.2059925123
 C        -1.5201323034       -1.4941563658       -0.2500225149
 C         0.8456645689       -0.4125677771       -0.7262115007
 C         0.9159336056       -0.4614143840        3.7016729772
 C         0.6679746287       -2.1046821820        3.8559289913
 C         1.3420353574       -2.8605324647        5.0839836642
 C         2.6464263259       -3.4390680617        4.5810763469
 C         2.5742500830       -4.5757031467        3.5869981236
 C         1.5488087563       -1.8107205688        6.2935159778
 C         0.2683355843       -3.8756685820        5.4971908228
 O        -0.0370145037       -2.5953769016        3.0315206888
 O         3.6346530165       -2.8199267596        4.8258114248
 C         3.9521843452       -4.8806104785        2.9833254293
 C         4.0442890251       -4.4177793344        1.4232794234
 C         5.4963994452       -4.2114150118        0.8763660091
 C         5.3031098268       -2.6675075344        0.2971439898
 C         4.7591829333       -2.4686580005       -1.1454903518
 O         3.0407379034       -4.3514220164        0.7076128012
 O         5.5700179651       -1.7371541270        1.0127034043
 C         6.6934035076       -4.2909140157        1.7758947088
 C         5.6606311474       -5.0949822303       -0.3692599323
 C         4.1886738763       -1.1029603979       -1.3999314500
 C         5.2363574209       -0.0580394415       -1.6740632111
 C         4.7643451628        1.4578626648       -1.6991955824
 C         3.6831783180        1.4728338629       -2.8251402064
 C         4.3016118441        1.3303711975       -4.2830073992
 C         4.1801119835        1.8438159859       -0.2890692816
 C         5.9593053797        2.3550379450       -2.0886746814
 O         6.3690942428       -0.3952405367       -1.9936670983
 O         2.4867020049        1.5000454701       -2.6085219736
 C         3.7743792951        0.1203093622       -5.0488944962
 C         3.9519935577        0.4048796713       -6.6173158998
 C         2.9143920001        0.1994729260       -7.8472777060
 C         3.0554407294       -1.4171536537       -8.1048597454
 C         3.4804418590       -1.9986658611       -9.4407155407
 O         5.0661963420        0.7915620730       -6.8554182602
 O         2.8698509155       -2.1907223624       -7.1416557411
 C         1.5180194850        0.4836562414       -7.4189007477
 C         3.4087614147        0.9451204990       -9.0848644558
 H        -7.3964753728        2.1447943954        3.8877240698
 H        -8.1645217002        0.5622300124        4.0921732060
 H        -7.1883650778        1.1434418169        5.3784114060
 H        -6.6418867430       -1.8243725969        0.2396228873
 H        -7.6881896319       -1.2241594712        1.3904497384
 H        -3.9318842165       -2.1813649801        2.8321746875
 H        -4.1640717916       -1.5962743413        4.5090370274
 H        -3.4110389066       -0.5354393856        3.2860968306
 H        -7.7329011328       -1.6327260181        3.5404996597
 H        -6.4747915651       -2.7117057202        3.2514321450
 H        -6.5448735356       -1.9552076598        4.7534860667
 H        -6.6195380782        0.5423308410       -0.8219917307
 H        -7.8263201944       -0.7046926036       -1.1412682716
 H        -7.7405672552        5.1399718437       -0.2182773826
 H        -7.1178646504        3.9375921336        1.0096938830
 H        -9.0079367367        1.0157450075       -2.3812104873
 H        -9.8999927350        2.3556792952       -2.5885560301
 H       -10.5259857455        1.2566659561       -1.4424946596
 H       -10.8089906555        2.6301439811        0.3676940730
 H        -9.4501893936        3.3797253819        1.1746521449
 H       -10.2166949306        4.0727871073       -0.1501742167
 H        -5.4653687866        5.7941785872       -0.3388607540
 H        -5.5738132079        4.3839964827       -1.4508602628
 H        -2.0034420671        3.2060785411       -1.6935953106
 H        -0.6088230540        4.1102835139       -1.1405187082
 H        -3.1288942683        5.0293811323       -1.9385052977
 H        -2.0658912709        6.1057530482       -1.1400704468
 H        -3.7496947489        6.5149204485       -1.1617647315
 H        -3.8829272253        6.4532561556        1.4347422679
 H        -3.0404376456        5.3826714163        2.4986703747
 H        -2.1296502831        6.4420287074        1.3351368255
 H         0.4411419909        2.1097513532       -1.2770008100
 H         0.1345763657        2.2792170634        0.4197790298
 H         1.5514067026       -0.8939549835        1.6662940535
 H         1.3453503867        0.8098300468        2.1640173252
 H        -1.4972117865       -1.9852646933       -1.2041468176
 H        -2.5864464584       -1.1831471361       -0.0587393627
 H        -1.3333419053       -2.2368902625        0.4988148745
 H         1.1793066009       -1.4382502158       -0.6083955034
 H         0.8449696960       -0.0523511876       -1.7883240562
 H         1.4942234098        0.3505220654       -0.2850233694
 H         0.0651466704        0.0967786612        4.1665512766
 H         1.9429971985       -0.1749376673        3.9118524957
 H         2.1634594809       -5.3830350412        4.1013122021
 H         1.9188028499       -4.2915881084        2.7513712622
 H         0.6557614946       -1.2899616155        6.3685937880
 H         2.4193411496       -1.1391793242        6.2541220357
 H         1.6402678977       -2.3960176843        7.2708037135
 H        -0.0462256686       -4.5830642339        4.7583468678
 H         0.6463258687       -4.4888939788        6.3179694352
 H        -0.5824882359       -3.2114772288        5.8300232224
 H         4.7673592487       -4.3461486776        3.5813762316
 H         4.0800666056       -5.9518673213        2.8436746801
 H         5.5358539647       -2.6942582015       -1.9228167640
 H         4.0435463626       -3.1874260787       -1.4954491833
 H         6.7285182632       -3.4444803027        2.6015612023
 H         7.6135577966       -4.2502128676        1.2100275062
 H         6.6621663837       -5.2079529719        2.4213311693
 H         6.2929584484       -4.6986300661       -1.1608882046
 H         6.1335615380       -6.0881312587       -0.1829959495
 H         4.7241026203       -5.3775410279       -0.8044656848
 H         3.6111006573       -0.9123314666       -0.5449497770
 H         3.4506391784       -1.1661435519       -2.2396088516
 H         4.0948958751        2.2807721448       -4.8335201901
 H         5.3797301132        1.3311531164       -4.1507222294
 H         4.8906938721        1.4084808366        0.4636618621
 H         3.2142958578        1.5157637201       -0.0603126026
 H         4.3696808192        2.8949563373       -0.1541320566
 H         5.6455640341        3.2073304610       -2.5797535698
 H         6.4532275062        2.6240474785       -1.1640768387
 H         6.6904007254        1.8260910647       -2.7681925260
 H         4.4138325156       -0.7629210256       -4.8433578754
 H         2.7505013977       -0.1386070827       -4.7536066472
 H         3.8311805582       -3.0210946375       -9.5097430282
 H         2.6762472773       -1.9232916523      -10.1365540669
 H         4.3325742517       -1.3973844001       -9.8028189063
 H         1.4356382838        1.5209969342       -7.2955765164
 H         1.4043785545       -0.1192602258       -6.5308866956
 H         0.9167773856        0.1505776104       -8.1313385604
 H         3.6622944404        1.9140774499       -8.7387395404
 H         4.2384400512        0.4654529465       -9.5602392154
 H         2.7400971336        1.1477924898       -9.8823124838
 Na       -3.3761309055        1.4786953146        2.1852791913
