155

 C        -7.2455613803        0.8540682371        4.4156020231
 C        -5.9909370557        0.5605946964        3.6664229000
 C        -5.6477150212       -0.7964150576        3.0258712328
 C        -5.8585308121       -0.5346528071        1.4991610067
 C        -7.0693773632       -1.1472512834        0.6594812225
 C        -4.2482676454       -1.1935782648        3.2718839400
 C        -6.6693999165       -1.9422000156        3.3381922298
 O        -5.0930297704        1.4377822758        3.6985608594
 O        -5.0130974278        0.1002262577        0.8100319370
 C        -7.7838129467       -0.0861301678       -0.2243452982
 C        -8.3007382895        1.1849210362        0.4178074625
 C        -8.8413385732        2.2584665560       -0.6784157557
 C        -7.5358241985        3.1255273479       -1.0384307387
 C        -7.1504342397        4.2447030427        0.0055494070
 O        -8.2943354201        1.4131858165        1.5890430014
 O        -7.0298727653        3.0126177635       -2.1450897708
 C        -9.2847303220        1.6129888446       -2.0017878061
 C        -9.9687711456        3.0891234521       -0.0726607525
 C        -5.8236726881        4.8904561055       -0.3812246498
 C        -4.6857939219        4.2456058543        0.3545337547
 C        -3.2246699045        4.9372363745        0.4127326938
 C        -2.0090469945        3.7837852881        0.4342228034
 C        -1.1675201589        3.4687992785       -0.9124799535
 C        -2.9281950694        5.8760636679       -0.7652820147
 C        -2.8939282931        5.5798050469        1.8424843076
 O        -4.9224615415        3.3125115617        1.1057007615
 O        -1.6977109955        3.3317847575        1.4883823312
 C        -0.3471618457        2.1432432929       -0.7300075862
 C        -1.2072139196        0.8726394291       -0.4556781993
 C        -0.5994940013       -0.3945890841        0.0834675327
 C        -0.5221150306       -0.1419261706        1.6183497464
 C         0.8084648900        0.0898065758        2.3068632805
 O        -2.4248771680        1.0089357673       -0.6338321368
 O        -1.5272836966        0.1396727090        2.2634276186
 C        -1.3220805818       -1.7318237092       -0.2882328186
 C         0.7941602307       -0.7217087399       -0.5390852033
 C         0.7739168796       -0.3780929078        3.8098991196
 C         0.5544142503       -1.9530953102        3.7746016822
 C         1.2821172188       -2.8397053856        5.1340511969
 C         2.5381692591       -3.4513403959        4.5088287311
 C         2.5671729686       -4.5963296085        3.4747904252
 C         1.6015522624       -1.8297458984        6.3097601830
 C         0.3449488600       -3.9333179560        5.6050364356
 O         0.3433680857       -2.6245672872        2.7651177628
 O         3.6249103350       -3.0247233189        4.9180327610
 C         3.9256767576       -4.8059997119        2.8540629718
 C         3.9643023095       -4.3018290801        1.3941167868
 C         5.4220745202       -4.0086383244        0.8141849882
 C         5.3096054435       -2.4860036774        0.2773114581
 C         4.7036657950       -2.4883246025       -1.0678838951
 O         2.9867289755       -4.1666358979        0.7243399546
 O         5.6284442502       -1.5812554461        0.9933649629
 C         6.5462810023       -4.1031757595        1.9383868934
 C         5.8692702013       -4.9724258431       -0.3712388915
 C         4.0847719005       -1.0611753455       -1.4401939954
 C         5.1793391956       -0.0617543518       -1.7693321294
 C         4.7207415154        1.4438996247       -1.7080998418
 C         3.6401010208        1.4173757120       -2.8544439244
 C         4.1646666353        1.4762060428       -4.2922179971
 C         4.0523996654        1.7566719661       -0.3641292100
 C         5.9246511417        2.3786693104       -1.8043703260
 O         6.2340001654       -0.3295095640       -2.2802547349
 O         2.4770895099        1.3391709395       -2.4923961522
 C         3.5967593582        0.3418725945       -5.1425740033
 C         4.1584939186        0.3873351359       -6.6039358133
 C         3.1926123962       -0.0139207878       -7.7501717931
 C         3.2394493460       -1.5675224172       -7.9295332418
 C         3.7200383351       -1.9927585151       -9.3261749776
 O         5.3097237528        0.6783134259       -6.8826443698
 O         3.0449777402       -2.3018268883       -7.0493858292
 C         1.6866504662        0.3565692795       -7.4166513567
 C         3.5110882286        0.9125097262       -8.9406273780
 H        -7.5710932290        1.8839597163        4.3628019933
 H        -8.0232506713        0.2359041743        4.2533402267
 H        -7.0183958009        0.5785161257        5.4327345489
 H        -6.6540136457       -1.9487594868        0.0767667503
 H        -7.7608610497       -1.7385347860        1.3763870331
 H        -3.8483039412       -1.5906179906        2.3763195207
 H        -4.1798062876       -2.0265228926        3.9936565019
 H        -3.6125116106       -0.3199346011        3.5344698701
 H        -7.6570408983       -1.6681148621        3.2633332282
 H        -6.7267877702       -2.8249206936        2.7290247142
 H        -6.5334073013       -2.3515680235        4.3609260994
 H        -7.0999081770        0.2604730766       -1.0692360812
 H        -8.6385232227       -0.6049825322       -0.6574620772
 H        -7.9109644715        5.0079790360       -0.0117907654
 H        -6.9565761801        3.8449230470        1.0071711442
 H        -8.3665155597        1.3649074172       -2.6625484257
 H        -9.7766869138        2.3043421865       -2.6963774067
 H        -9.9436827920        0.7909673334       -1.7976191246
 H       -10.6713964457        2.4257410585        0.3688498516
 H        -9.7553775854        3.8486603650        0.7097884478
 H       -10.6097409443        3.5942776864       -0.8821497048
 H        -5.7914740638        5.9992875092       -0.2178303390
 H        -5.6221566476        4.6286077027       -1.4710777481
 H        -1.8959180704        3.4004112789       -1.7229650300
 H        -0.6063359132        4.3868525647       -1.1744294916
 H        -3.0452767730        5.3849546044       -1.7766036087
 H        -1.9316268995        6.4449547926       -0.7599844763
 H        -3.7155896322        6.6966363873       -0.6460968649
 H        -3.4768558080        6.4354326035        2.2227283689
 H        -3.1846387688        4.8546131231        2.4916475862
 H        -1.8293067378        5.8810918583        1.9398232964
 H         0.1931197668        1.9043729582       -1.6753780473
 H         0.4562228758        2.3035359625       -0.0565927247
 H         1.5929453397       -0.4133084973        1.7980657979
 H         0.9259771991        1.2191518742        2.3199695169
 H        -1.9026970053       -1.6135311904       -1.1653846303
 H        -2.0472909870       -1.9440872443        0.3860192146
 H        -0.7524926246       -2.6647657061       -0.4128867225
 H         1.2204140193       -1.5749611806       -0.0725283598
 H         0.5989003076       -0.8585047572       -1.5508063674
 H         1.4569916720        0.1557668845       -0.5030599409
 H        -0.0916083400        0.0491238154        4.2608957187
 H         1.7590357324       -0.3439492280        4.2808984618
 H         2.2692989771       -5.5985797219        3.9958031731
 H         1.8585705451       -4.3287588477        2.6601821043
 H         0.6421018096       -1.2494782553        6.6052333775
 H         2.4090539715       -1.1281290490        6.0153320404
 H         1.9253417712       -2.3229496999        7.1652356061
 H         0.1646366420       -4.5292022638        4.6606749415
 H         0.8443153079       -4.6553722630        6.2100502726
 H        -0.6255882194       -3.5941776540        5.8463571423
 H         4.7085639650       -4.3288812836        3.4052132073
 H         4.0389168569       -5.9104583772        2.6969280391
 H         5.3233576879       -2.8536993707       -1.8589872510
 H         3.8916366905       -3.2591764868       -1.1617350242
 H         6.3453486120       -3.4383181214        2.6656480862
 H         7.5250530595       -3.7517959906        1.6300015050
 H         6.6349791541       -5.0098393454        2.4457302197
 H         6.8953355135       -4.7659433501       -0.7010581630
 H         5.9137817466       -6.0190720576       -0.1003478252
 H         5.2679583833       -4.9950668546       -1.3208833046
 H         3.2718366233       -0.7503891744       -0.7126760535
 H         3.5232007207       -1.1914922078       -2.3559704147
 H         3.8168551713        2.4739481770       -4.5715174453
 H         5.2700039725        1.5466861178       -4.2530720381
 H         4.6023425813        1.4180220700        0.4327068559
 H         3.0142066607        1.3986174041       -0.4014002412
 H         3.9259618608        2.8773065099       -0.2170780654
 H         5.5897573937        3.4511301372       -2.0550344880
 H         6.4665715467        2.3360104492       -0.8545717372
 H         6.5889442677        2.0308757168       -2.5774601200
 H         3.7281999600       -0.6238792565       -4.6729879723
 H         2.5405300079        0.4995765451       -5.3067221615
 H         3.3514735278       -3.0060614018       -9.5205700460
 H         3.3415726207       -1.4033039329      -10.1749274987
 H         4.7795891329       -2.0988941114       -9.3864379200
 H         1.7452726858        1.4406854645       -7.1647544600
 H         1.3464247518       -0.3719701107       -6.6868262782
 H         1.1175756895        0.1529792754       -8.4550963458
 H         3.4877346468        1.9958967591       -8.7425618045
 H         4.3957141496        0.5879482871       -9.4711820704
 H         2.7492583310        0.6425517196       -9.7656278483
 Na       -3.3520115133        1.5539449959        1.8605987279
