155

 C        -6.8374332402        0.0113900486        4.7643584043
 C        -5.9227602440       -0.1853488622        3.6010824880
 C        -6.1275281179       -1.4072699313        2.6965590402
 C        -6.3726118972       -1.0809505549        1.1077370733
 C        -7.7902935173       -1.3246025876        0.6052615477
 C        -4.9203765090       -2.3437748996        2.7602983250
 C        -7.3065014317       -2.3292230148        3.1615149893
 O        -4.9739709729        0.5022768200        3.4634727143
 O        -5.5021932211       -0.5730115903        0.4708129863
 C        -8.2356281122       -0.2734280551       -0.4184265071
 C        -8.0993847267        1.2809783513        0.0581203472
 C        -8.4645016949        2.3591637262       -1.1131832295
 C        -7.3046411909        3.3546393016       -1.0417117578
 C        -7.2760109310        4.4078606879        0.0596831179
 O        -7.8708564638        1.5937928257        1.1334473223
 O        -6.3663670713        3.0827808656       -1.7812503922
 C        -8.5207780516        1.6473845182       -2.4723837279
 C        -9.7646022046        3.1216592480       -0.7993920444
 C        -5.9573948897        5.1399394856        0.3641525239
 C        -4.6929098890        4.2762891659        0.6052933705
 C        -3.3188323432        4.9372665365        0.7570484898
 C        -2.0934210441        3.7670108089        0.5536714494
 C        -1.4384648503        3.6906315518       -0.7839160821
 C        -3.0694270505        6.1506646982       -0.0833938439
 C        -3.4046194021        5.4046312719        2.2941960602
 O        -4.8085741336        3.0615408454        0.7863513867
 O        -1.9281497202        2.9307695703        1.4461771932
 C        -0.7047715930        2.3538606963       -1.0940722759
 C        -1.5212988166        1.1238570126       -0.3823420288
 C        -0.6529382318       -0.0516122872        0.5080734603
 C        -0.5385666547        0.3648126051        1.9723675289
 C         0.7909445339        0.6225373062        2.6061257442
 O        -2.7148704849        1.0946908361       -0.6445947301
 O        -1.5474341573        0.4726907380        2.6489753025
 C        -1.5372108348       -1.3200430125        0.5934818493
 C         0.6662739071       -0.3780034430       -0.2184040231
 C         1.0575222891       -0.3634376422        3.7679016822
 C         0.7751291242       -1.8552378215        3.4711710974
 C         1.0668085332       -2.8661609522        4.7839201745
 C         2.5400276805       -3.4763833306        4.3753284173
 C         2.4571850618       -4.6924037040        3.2981702835
 C         1.1759016563       -2.1134366995        6.1302169545
 C        -0.0285247079       -3.9532028512        4.8618050727
 O         0.4625363078       -2.3018426575        2.4040084541
 O         3.6199865929       -3.1250817752        4.7235627234
 C         3.8639277385       -4.9756094216        2.6774751063
 C         4.1442963666       -4.0166963300        1.5871824349
 C         5.5582375110       -3.5736199233        1.2041189975
 C         5.4052507338       -2.1507935906        0.3011034878
 C         4.8212399322       -2.3115867398       -1.1281046437
 O         3.2222843625       -3.6277319041        0.8875672804
 O         5.7765696176       -1.1008116110        0.8411256338
 C         6.4523133115       -3.2540952937        2.3580073113
 C         6.1805303571       -4.7190974497        0.3582846917
 C         4.1209026357       -1.1060520030       -1.7250797180
 C         5.1027086168       -0.0128285004       -2.0338532438
 C         4.6016347039        1.4314885781       -1.7916434631
 C         3.4902342410        1.8061182796       -2.8340981360
 C         4.0616970384        1.6143311746       -4.3391961847
 C         4.0758558810        1.5322655057       -0.3197429599
 C         5.7516965713        2.4718293857       -1.9318729684
 O         6.2319891814       -0.3633551099       -2.3385109339
 O         2.4510695502        2.2538405561       -2.4609062942
 C         3.2369920154        1.0508395062       -5.4604430053
 C         4.1673862353        0.6290521553       -6.6347808951
 C         3.6000651151       -0.2681199838       -7.7904409972
 C         4.0708594368       -1.7551098039       -7.4541136084
 C         5.2649388181       -2.3994303814       -8.1446879462
 O         5.3484808944        0.9064770202       -6.6770362181
 O         3.4519363802       -2.2897482698       -6.5354549548
 C         1.9369239062       -0.2701671902       -8.0424513864
 C         4.2735517826        0.4245927594       -9.0507850983
 H        -6.5265826870        0.9532070985        5.1745322973
 H        -7.9512443257       -0.1297741291        4.6357228943
 H        -6.6332106491       -0.6150231097        5.6494803401
 H        -7.8699538909       -2.2826784292        0.1335159709
 H        -8.3924269307       -1.2688068591        1.5441461282
 H        -5.3182657942       -3.2661220510        2.3513450738
 H        -4.5598493807       -2.4085822075        3.8174227034
 H        -4.0794416629       -1.9702941042        2.1837550053
 H        -8.1693454678       -1.6744459093        3.5066135079
 H        -7.5241304176       -2.9830830222        2.3910644213
 H        -7.1643672852       -2.9900431443        4.0539852002
 H        -7.6146274977       -0.3242351866       -1.3262769386
 H        -9.1855977034       -0.6125628619       -0.7440246198
 H        -8.1124550989        5.0466393438       -0.1865010432
 H        -7.4256131229        3.9480031054        1.0697614668
 H        -7.6341500582        1.1190807325       -2.6199080280
 H        -8.7679637829        2.3611065247       -3.1547965857
 H        -9.2533088651        0.8714556205       -2.4787846594
 H       -10.6137481816        2.4622738913       -1.0813703054
 H        -9.8383853696        3.4657843795        0.2204788515
 H        -9.8277049289        3.9630654201       -1.4081234295
 H        -6.1493119838        5.6875908560        1.2700382273
 H        -5.6855883615        5.9464107762       -0.3202245329
 H        -2.3466011369        3.7212496698       -1.4694041712
 H        -0.7959316027        4.5955102385       -1.0281233442
 H        -3.2119308744        5.9984048481       -1.1166652084
 H        -2.1179282295        6.5466622965        0.0337878746
 H        -3.6965074111        6.9469784307        0.0848138887
 H        -4.0205746077        6.2885189182        2.3212986028
 H        -3.8779642306        4.7090083532        3.0816635005
 H        -2.4592699369        5.6503150755        2.7227692328
 H        -0.7700853404        2.3092727692       -2.2445418666
 H         0.3532590793        2.4558475576       -0.8826001195
 H         1.6225549700        0.5016421161        2.0022618763
 H         0.9484177438        1.6181095755        3.0533046640
 H        -1.0785078881       -2.2597277885        0.6971570143
 H        -2.2718163525       -1.3760496765       -0.2776961308
 H        -2.2350453323       -1.2743516482        1.3498952366
 H         1.3254831986       -1.1173617046        0.2464072902
 H         0.3250262639       -0.8560698412       -1.1776275616
 H         1.2236858748        0.6079399279       -0.4471525583
 H         0.4095024910       -0.2004410412        4.6634627014
 H         2.0932961617       -0.3190950368        4.2298165719
 H         2.1767374641       -5.6023688843        3.8212922197
 H         1.6832951191       -4.5090029213        2.5979821937
 H         0.3480340817       -1.5228370961        6.3907284087
 H         2.0917914268       -1.4695584819        6.1490253832
 H         1.2967925318       -2.8612799253        6.9427967130
 H        -0.1959543615       -4.3660139059        3.8264964953
 H         0.2641642580       -4.7183204339        5.5036339029
 H        -0.9303744552       -3.6362528328        5.3704391217
 H         4.6631491217       -4.8631660103        3.4378959856
 H         4.0532604640       -6.0612222248        2.3389970995
 H         5.6527834696       -2.5366945051       -1.7957130731
 H         4.0641100605       -3.1918681237       -1.1583423895
 H         5.8642067590       -2.7585508095        3.2766874005
 H         7.2308779546       -2.5578149416        2.1003938341
 H         7.0625039159       -4.0782307718        2.8005978619
 H         7.1668468950       -4.4079242637        0.1054340171
 H         6.2642350298       -5.6497858715        0.9105778915
 H         5.6603955698       -4.9271579380       -0.5975390720
 H         3.3477250669       -0.8226143901       -0.9710672978
 H         3.5835497547       -1.4586034841       -2.6010076326
 H         4.3179762464        2.6523785670       -4.6244348266
 H         5.0241740900        0.9994499133       -4.2777357223
 H         4.9680122680        1.2607417109        0.2704815554
 H         3.3262698997        0.8889352163       -0.0288700421
 H         3.8905280578        2.5480934546       -0.1507749323
 H         5.3564388797        3.4368615515       -1.9033109689
 H         6.4171086580        2.3808225400       -1.1240940144
 H         6.3000174442        2.2537001326       -2.9150972155
 H         2.6186880744        0.1926421134       -5.1668378068
 H         2.6372721726        1.7858675165       -5.9873404405
 H         5.6840142919       -1.8399477609       -8.9866115175
 H         5.9889407192       -2.6348408299       -7.4141670286
 H         5.0265441438       -3.3789159859       -8.5911448784
 H         1.6888601296        0.7683855704       -8.2055051584
 H         1.3461828758       -0.6947240243       -7.2240819487
 H         1.8847293832       -0.7136288675       -8.9179215644
 H         3.7261301854        1.1166662470       -9.6107622504
 H         5.1782615210        0.8845169291       -8.7154540472
 H         4.5204856498       -0.3821871595       -9.7876054394
 Na       -3.7468735247        0.9728651625        1.4947713897
