155

 C        -6.7953364556       -0.5485354052        5.0104053858
 C        -5.9675732693       -0.8232413693        3.8108547453
 C        -6.5715860038       -1.8391077233        2.7638883969
 C        -6.4707605758       -1.1422167204        1.3478289694
 C        -7.7647051868       -1.2673701127        0.4184061511
 C        -5.4885876910       -2.9999755702        2.6103581658
 C        -7.9596388357       -2.3881737597        3.1074502192
 O        -4.8873253836       -0.3044757550        3.7222111270
 O        -5.5778527078       -0.4704033531        0.9540566614
 C        -7.7360745654       -0.2334535368       -0.7793541281
 C        -8.1849020690        1.2568116500       -0.3512819855
 C        -8.2070866294        2.4236069345       -1.4980581055
 C        -7.0621135528        3.4363654130       -1.2238382949
 C        -7.1999370399        4.0502783725        0.1995372202
 O        -8.6359659815        1.4080548150        0.7937377709
 O        -6.2063662879        3.7527480947       -1.9870299042
 C        -8.1860424638        1.7035890124       -2.8824747032
 C        -9.5021806649        3.2537970086       -1.4051780115
 C        -6.0292742295        4.9035335476        0.8106554262
 C        -4.7747723554        4.1058980950        1.0037555745
 C        -3.3946717085        4.7967598299        1.0722459205
 C        -2.1621129218        3.7240447234        0.9361142084
 C        -1.5795839016        3.7214876172       -0.4661080098
 C        -3.1032364222        5.9321850897        0.1363614787
 C        -3.1847338697        5.3905708895        2.5410984705
 O        -4.9576168578        2.8862345546        1.0641716268
 O        -1.8191322748        3.1060344510        1.9145576344
 C        -0.8805409976        2.3938386110       -1.0545255418
 C        -1.6038576150        1.0166264378       -0.6025371594
 C        -0.7576653571       -0.2017926580        0.1440938547
 C        -0.6459351170        0.1130321719        1.7598809177
 C         0.6198647479        0.5788110194        2.4826924400
 O        -2.8245332848        0.8807860211       -0.6515855451
 O        -1.7467811178        0.1159259715        2.3452607834
 C        -1.5560032552       -1.4723649430       -0.0795669329
 C         0.5765547438       -0.4592075543       -0.4749277140
 C         0.7155556199       -0.1829074057        3.7948115578
 C         0.4653938500       -1.7256496857        3.4627094427
 C         0.8318880013       -2.8770404819        4.5620950561
 C         2.2769902874       -3.3410250590        4.1253881479
 C         2.4899656542       -4.6907221341        3.3169485025
 C         0.9603816687       -2.2694811408        5.8870080706
 C        -0.1001586764       -4.0916231986        4.6325129345
 O         0.1967834266       -2.1099621073        2.3491414138
 O         3.2397419202       -2.7214436363        4.4684306590
 C         3.8354160353       -4.7508962502        2.7156174676
 C         4.0348575373       -3.5384529078        1.6673895863
 C         5.5654932541       -3.0474154328        1.3725376408
 C         5.3449087262       -1.9618131326        0.2614301616
 C         4.9759846327       -2.3315256540       -1.1888003160
 O         3.0819116898       -3.2181953051        1.0178678360
 O         5.3975172518       -0.7873280058        0.5700343018
 C         6.2433504446       -2.4767786816        2.6251230989
 C         6.3817473105       -4.2431832915        0.7879428441
 C         4.5206611260       -1.0882462618       -2.0026509508
 C         5.4325983805        0.1018374309       -2.0687812801
 C         4.8398730797        1.5574054136       -1.8344964282
 C         3.8737320505        1.6388292441       -3.0409043568
 C         4.5974551945        1.9124133843       -4.4018385697
 C         4.1764966018        1.6928861838       -0.4063506576
 C         5.8173612130        2.6819363539       -1.8851039198
 O         6.6160997321        0.0610320012       -2.3964603580
 O         2.6892658572        1.2956882395       -3.0730942059
 C         3.9533509332        0.9061078817       -5.3577593369
 C         4.3472300733        0.9719894733       -6.8533260059
 C         3.8677035461       -0.3284321008       -7.6725201025
 C         4.3329870981       -1.6313080960       -6.7890045095
 C         5.7745529161       -1.9350952656       -6.5804176082
 O         5.0985588034        1.8467811873       -7.2747313144
 O         3.5177785966       -2.3379210209       -6.3567667910
 C         2.2747269404       -0.3864993525       -7.6209643483
 C         4.5000853684       -0.4446992796       -9.1543597246
 H        -6.1485785702       -0.0364331379        5.6570980050
 H        -7.5425470522        0.1619369675        4.8864985440
 H        -7.1803015651       -1.3903973515        5.5644223706
 H        -7.5659693648       -2.3014751692        0.0516966130
 H        -8.6997760696       -1.0964962288        0.9569768862
 H        -5.8916513995       -3.7738124164        1.9748192025
 H        -5.2494366647       -3.4012312150        3.6146109610
 H        -4.5989767532       -2.4813510432        2.0631031613
 H        -8.5929735588       -1.5769745083        3.3073151692
 H        -8.3728231905       -2.8151467198        2.2219778658
 H        -7.8471087908       -3.1247737178        3.9545621060
 H        -6.7371579369       -0.1883688680       -1.2228762125
 H        -8.4643208774       -0.5683128229       -1.5680449439
 H        -8.1306419349        4.6369395068        0.1995865671
 H        -7.4777097227        3.2723888084        0.8797671266
 H        -7.2077745778        1.1511322985       -3.1095218311
 H        -8.1977705694        2.3809990823       -3.6687621553
 H        -9.1603370189        1.1339055229       -2.8929441597
 H       -10.2338737830        2.7904252475       -1.9474211410
 H        -9.8144831429        3.4208298034       -0.3977200446
 H        -9.3138736793        4.2326852943       -1.8984032632
 H        -6.4443304062        5.3214060975        1.7883614750
 H        -5.8097589690        5.8523598106        0.2853465271
 H        -2.2892072546        4.2038578586       -1.1838321400
 H        -0.6654942391        4.3598167130       -0.4319814448
 H        -3.2102194323        5.8664695141       -0.8969116462
 H        -2.0764871587        6.2674221146        0.2699447549
 H        -3.6621833443        6.8024047238        0.4569574020
 H        -3.8199313143        6.2188700071        2.8624361445
 H        -3.3023824630        4.5971436758        3.2112019088
 H        -2.1299807365        5.6754814024        2.7167198863
 H        -0.8721257320        2.4276427763       -2.1215495310
 H         0.1691348734        2.5376826521       -0.6978741083
 H         1.6098046934        0.4996995706        2.0085176394
 H         0.5573845942        1.6541931437        2.7469784453
 H        -0.9136930878       -2.2744666918       -0.1847998526
 H        -2.0798474809       -1.4986163261       -1.0307906634
 H        -2.2475879701       -1.7225949127        0.6817413750
 H         1.0599772200       -1.2912771179       -0.0114174584
 H         0.4765295494       -0.6701226352       -1.5123696968
 H         1.3244261977        0.3694514357       -0.4675439482
 H         0.0661526908        0.2193401787        4.5738469166
 H         1.6125897104       -0.1461934528        4.3698875369
 H         2.1768038817       -5.5381841808        4.0420897506
 H         1.7223955720       -4.7821150355        2.4688877170
 H         0.0478271320       -1.6530443706        6.2691276532
 H         1.8646919895       -1.6419424518        5.9964029643
 H         1.1798741557       -2.9937488252        6.5979267944
 H         0.0071888662       -4.7083315382        3.7139751810
 H         0.3105615615       -4.7187574975        5.4320545631
 H        -1.1189166914       -3.8616822256        4.7245249055
 H         4.7145099891       -4.7907305824        3.4207217412
 H         3.9980574710       -5.6813505501        2.0891192435
 H         5.8670276547       -2.7557568614       -1.7417647300
 H         4.1429472788       -2.9880238675       -0.9994888983
 H         5.4808860750       -1.8201475662        3.0875744662
 H         7.1191225249       -1.8681622084        2.4087177876
 H         6.4149802049       -3.1854373476        3.3980210574
 H         7.4360686712       -3.9408134456        0.7404289241
 H         6.3197147511       -5.0326254858        1.5216134585
 H         5.9536108427       -4.5798167471       -0.1727246694
 H         3.5151415540       -0.8748692466       -1.5526879790
 H         4.4741361876       -1.4305977579       -3.0517896574
 H         4.3740294552        3.0058466658       -4.5710778479
 H         5.6843901859        1.8298147200       -4.3283446909
 H         5.0359176538        1.7740677941        0.3216478815
 H         3.6666733043        0.8666046914       -0.1762555488
 H         3.5557850634        2.5851878977       -0.3051424793
 H         5.4710950698        3.4749483347       -2.5784582293
 H         5.9170260869        3.0676161829       -0.9118730239
 H         6.8183773518        2.4244639423       -2.2561564894
 H         4.2169532172       -0.0593188864       -4.9632113983
 H         2.8837344808        1.0318625542       -5.2218810505
 H         6.0034163320       -1.3793967655       -5.6567602209
 H         5.9505391099       -2.9917686868       -6.3662030966
 H         6.5156888598       -1.5802421960       -7.2449077579
 H         1.9041993757        0.6565408485       -7.7121845751
 H         1.9203419426       -1.0587863845       -6.7578366788
 H         1.9614042540       -0.9981218013       -8.5181221402
 H         3.8114166757        0.0924698106       -9.8260593989
 H         5.4942356392       -0.2125136140       -9.3386482691
 H         4.3864532360       -1.5147554711       -9.4235560711
 Na       -3.8537673673        0.7356452509        1.7148826724
