155

 C        -6.6858878484       -1.2979873427        5.0718821336
 C        -6.2896347916       -0.8460222118        3.6296741452
 C        -6.6734752379       -1.7316429896        2.3625007763
 C        -6.7254746499       -0.9167980051        1.0448948006
 C        -7.8682846966       -1.1495134700        0.0541479115
 C        -5.4709955394       -2.8081267376        2.2929977877
 C        -8.0411775229       -2.4635506093        2.6602231052
 O        -5.5053924009        0.0457787635        3.4561023676
 O        -5.9549216828       -0.0105289108        0.7983231043
 C        -7.8453192600       -0.1556011513       -1.0541383522
 C        -8.5718751503        1.1516785785       -0.8310049302
 C        -8.1084000138        2.4023398722       -1.7192808175
 C        -6.9717212945        3.2355679097       -1.1328321924
 C        -7.1733222530        3.7998027248        0.3227259955
 O        -9.4064916158        1.3345827666       -0.0390692048
 O        -5.9826754510        3.4691373108       -1.8585889177
 C        -7.5979169989        1.9456040201       -3.0827997075
 C        -9.2983829983        3.3357265111       -2.0224013327
 C        -5.9420286605        4.5664489105        0.7507132521
 C        -4.9328681492        3.7419220838        1.5282199249
 C        -3.5225861919        4.4074512395        1.6880325292
 C        -2.3913295302        3.4440592265        1.0111369994
 C        -2.0247189945        3.5858611813       -0.4516255390
 C        -3.3859256682        5.7323244732        0.9858564331
 C        -3.1612007879        4.5104612595        3.2537632842
 O        -5.1938212936        2.7221260342        2.1392762717
 O        -1.7955666452        2.6437807914        1.6803028646
 C        -1.2062254721        2.3190394296       -0.9047322830
 C        -1.9038626509        0.9752568761       -0.6342583060
 C        -1.0299967844       -0.4050897246       -0.1760287207
 C        -0.8389669456       -0.2047962800        1.3506144700
 C         0.5640541538       -0.4588209370        1.9610168219
 O        -3.1018401715        1.0031147837       -0.5183495250
 O        -1.7209093408        0.1135757480        2.1320096056
 C        -1.9495306744       -1.6257438001       -0.3925764865
 C         0.2491389123       -0.5969573837       -0.9997099260
 C         0.4333684995       -0.9097310820        3.5380190372
 C         0.2120633174       -2.4240618320        3.5674995915
 C         0.7588200058       -3.2022376354        4.7534687921
 C         2.2641891350       -3.2637238607        4.2183108676
 C         2.4177968769       -4.2504461278        3.1311076906
 C         0.8052395684       -2.3728187678        6.0288816458
 C        -0.0157297624       -4.5462086580        4.8991796068
 O        -0.2918331856       -2.9538962291        2.5448324394
 O         3.1001338212       -2.5885235495        4.7636976973
 C         3.8753323255       -4.2982405738        2.6404520340
 C         4.1937306586       -3.0727357653        1.7683967237
 C         5.6339968684       -2.4996311269        1.6462067207
 C         5.6533009633       -1.4367826121        0.4648710962
 C         5.5336999157       -1.8452591074       -1.0569159129
 O         3.2699938247       -2.5713530597        1.1223198878
 O         5.6168571957       -0.2593319080        0.7336360584
 C         5.9723421327       -1.7855078356        2.9896923041
 C         6.6703716971       -3.6394146983        1.3506389237
 C         4.8923179937       -0.7186185703       -1.8794247825
 C         5.8183415076        0.5508258892       -1.8935952095
 C         5.1511296372        1.9170218529       -2.0278914635
 C         3.9979003365        1.8188806983       -3.0975095970
 C         4.4655337573        1.2478341726       -4.5025496445
 C         4.6391708866        2.3614734464       -0.5996641236
 C         6.1961535557        2.9680660331       -2.3030680600
 O         7.0071363313        0.4918034281       -2.0496857107
 O         2.8579974831        2.1903278534       -2.9523120685
 C         3.4599820650        0.7449017432       -5.4978159966
 C         4.2510422900        0.6947509108       -6.8360643514
 C         4.3831885508       -0.6049227608       -7.6123512763
 C         4.9166232883       -1.7286015430       -6.5608119246
 C         6.3692054416       -1.6396816642       -6.2276279656
 O         4.6643066197        1.7162869381       -7.3316327189
 O         4.1250793634       -2.3970528278       -5.9338179779
 C         2.9551751496       -0.8416566860       -8.1796380450
 C         5.3925740474       -0.3998822091       -8.8064500710
 H        -6.9333767831       -2.3921709174        5.2057303393
 H        -5.7471244255       -1.2374956138        5.7463386707
 H        -7.4691818901       -0.6572751201        5.5320391925
 H        -7.8477305442       -2.1947677449       -0.2050560823
 H        -8.8157669909       -0.8881699923        0.5797387718
 H        -5.7858576551       -3.5666512680        1.6268962902
 H        -5.3547114526       -3.2577703179        3.2978228838
 H        -4.5610068703       -2.3683153215        2.0059486163
 H        -8.8455259533       -1.6771311037        2.7703488698
 H        -8.1119505169       -3.0321345537        1.7977965237
 H        -8.0516368316       -3.1795178237        3.5055815602
 H        -6.8562456581        0.1098008614       -1.3364980135
 H        -8.2784487777       -0.5479785153       -1.9715562679
 H        -8.0550383545        4.5075029896        0.2372225979
 H        -7.5426158091        3.0312706317        1.0030360765
 H        -6.8129354018        1.3497913517       -3.0751408661
 H        -7.5189465886        2.8458591020       -3.7046714982
 H        -8.3102036991        1.3768322446       -3.5810918713
 H        -9.7863915488        2.9919154929       -3.0006395999
 H       -10.1026282648        3.3097644878       -1.2013999979
 H        -8.8819005135        4.3270325336       -2.1908026881
 H        -6.2277294151        5.4407953372        1.3836103083
 H        -5.4663997307        4.9304094117       -0.1414847812
 H        -2.9546248242        3.6203249017       -1.0335869827
 H        -1.5306708531        4.5191683492       -0.7462573073
 H        -3.6537085946        5.6406720499       -0.0930679785
 H        -2.3435547468        6.1153088576        1.0877538561
 H        -4.1377635118        6.4526045640        1.3574971035
 H        -3.7195260544        5.2861481746        3.7914434577
 H        -3.3805257399        3.4916256117        3.7834801494
 H        -2.0873505802        4.7058614128        3.2626903298
 H        -1.0027793774        2.3330252841       -1.9921231403
 H        -0.2103493498        2.4686124599       -0.4504147783
 H         0.9832765461       -1.3209196259        1.5746204088
 H         1.1895583267        0.4400673440        1.8600491378
 H        -1.3737411678       -2.5970503197       -0.4310201370
 H        -2.5803167213       -1.5001906785       -1.3249840192
 H        -2.5753062593       -1.6731287848        0.4976998266
 H         0.7293179004       -1.5610070426       -0.8789626537
 H        -0.1001209807       -0.6501382163       -2.0478802730
 H         1.0273396921        0.2331014823       -1.0174074994
 H        -0.4626461125       -0.3834255806        3.9951018006
 H         1.3466118427       -0.7185021409        4.1484998170
 H         2.0999357813       -5.1675069966        3.6058394684
 H         1.7408842137       -3.9578461212        2.4117027448
 H        -0.1138376267       -2.0493952912        6.3273387298
 H         1.4864283477       -1.5144175373        6.0876610493
 H         1.1389073270       -3.0493122106        6.8618730447
 H        -0.1438376735       -5.0370960379        3.8850792005
 H         0.4484678040       -5.1958885710        5.6060496323
 H        -0.9353043508       -4.3646769590        5.4088846956
 H         4.5333591343       -4.2783071553        3.4921859575
 H         3.9958219782       -5.1910073629        2.0071546213
 H         6.5840540146       -1.9652505857       -1.4386959354
 H         5.0505906673       -2.8150763784       -1.0811625313
 H         5.4480841429       -0.7970638048        2.9483577920
 H         7.0330439163       -1.6768858429        3.1925666367
 H         5.5512077686       -2.4574602843        3.7936901960
 H         7.5898684850       -3.1551487608        1.0744086638
 H         6.6977399411       -4.2586777524        2.2129267375
 H         6.2315148427       -4.1899494968        0.4742931451
 H         3.7953371843       -0.5730649331       -1.5500532307
 H         4.7358008107       -1.1067934270       -2.8529157934
 H         4.9746342623        2.0308660613       -5.1263255891
 H         5.2350922462        0.4789185533       -4.3711367366
 H         5.4352198640        2.3048677529        0.0641581475
 H         3.7988654223        1.6740295690       -0.2147551152
 H         4.2791983668        3.3392760665       -0.5788073991
 H         5.9735587056        3.8840816550       -1.8029496645
 H         7.1295198369        2.6774702393       -1.9150112577
 H         6.4597467571        3.0789645812       -3.4028622985
 H         2.9000861689       -0.1423863823       -5.2377029020
 H         2.6387401101        1.4595334521       -5.6487683312
 H         6.8007374061       -2.5684729049       -5.8226224382
 H         7.0098013212       -1.4109910643       -7.0515999658
 H         6.5132017531       -0.8116127708       -5.5087861437
 H         2.3352061545        0.0707745847       -8.2861207768
 H         2.3233939386       -1.4926566265       -7.6245981754
 H         3.1557231686       -1.2447160536       -9.1119072066
 H         4.9422591572        0.0387463814       -9.7092071427
 H         6.2767007973        0.1817774788       -8.5266863488
 H         5.6782766819       -1.4975880848       -8.9971084149
 Na       -4.0079654926        1.0206602423        1.7287580355
