155

 C        -7.6032885253       -1.2008758375        4.1628968731
 C        -6.7375109023       -0.9942430287        2.9149750666
 C        -6.8504576455       -2.0922655331        1.7574351774
 C        -6.9022059486       -1.2713158786        0.4357540356
 C        -8.2122954272       -1.2354650503       -0.4820356890
 C        -5.5402407373       -2.9277564024        1.9163904340
 C        -8.1102593539       -2.9402096547        1.8351757774
 O        -5.8929722507       -0.1353186223        2.8713067535
 O        -5.9023191181       -0.6704554660       -0.0049689014
 C        -8.1112798510       -0.1699503194       -1.6036777895
 C        -8.3039834361        1.2125126480       -1.0140988919
 C        -7.8193787480        2.4119371395       -1.8677168245
 C        -6.8022542301        3.4167140836       -0.9953599152
 C        -7.3722911625        4.1013092341        0.2664949880
 O        -8.9400730231        1.4034941849       -0.0376870906
 O        -5.7104302016        3.6123259073       -1.4670820571
 C        -7.0186361231        2.1004770331       -3.1758689677
 C        -9.2090124824        2.9855259883       -2.3836575095
 C        -6.3022174333        4.7924009137        1.1562680734
 C        -5.0756047413        3.8867056451        1.6116804006
 C        -3.7685938132        4.2808839265        2.1438199121
 C        -2.5562183426        3.2943330130        1.6585747783
 C        -2.1342948140        3.3056960012        0.2332532801
 C        -3.5258313757        5.7318465208        1.7697559543
 C        -3.8115884801        4.0449962127        3.6699601063
 O        -5.3532130477        2.6797193277        1.4687579850
 O        -2.2078653264        2.4042240885        2.4089567660
 C        -1.2766357851        2.1832351343       -0.3894354946
 C        -2.0647724563        0.7988220934       -0.5235942019
 C        -1.3513703174       -0.4647695214       -0.5475052999
 C        -1.6887316254       -1.2176524569        0.8775187440
 C        -0.5408909823       -2.0704746205        1.3713076695
 O        -3.3121698416        0.8640842145       -0.6477873425
 O        -2.7549473699       -1.0655937880        1.4813524727
 C        -2.2071507942       -1.5249837735       -1.5060265926
 C         0.1772468958       -0.3168756104       -0.9361958373
 C        -0.6921729692       -2.3879369852        2.9199751150
 C         0.0378463730       -3.7511499481        3.1958006891
 C         0.6145185935       -4.1737023044        4.6110786657
 C         2.1816712161       -3.6382638799        4.5518318682
 C         3.0827976334       -4.5076106747        3.5973226232
 C        -0.1114384634       -3.4561036654        5.8342934347
 C         0.5796144565       -5.6938664347        4.6452883649
 O         0.0380736678       -4.5201946365        2.2612749775
 O         2.4742023066       -2.6442689641        5.1805393090
 C         4.4179351844       -3.7287151352        3.3313752062
 C         4.2788481017       -2.3830802012        2.5331374247
 C         5.4675186356       -1.2903766681        2.7630187842
 C         5.4880671111        0.0351532579        1.9854742028
 C         5.5486215216       -0.1007755949        0.3951697166
 O         3.2497646277       -2.1833898401        1.9573927646
 O         5.5699282401        1.1295195155        2.5398001402
 C         5.6431979892       -0.9573241810        4.2491260910
 C         6.7517544174       -2.1549056450        2.3226880766
 C         5.1651437728        1.2382064074       -0.2392755830
 C         5.9255076334        1.5151868092       -1.6063687368
 C         5.3575894071        2.5787867554       -2.7060624140
 C         4.5100564784        1.8434822506       -3.6891610025
 C         4.9328264677        1.8742715173       -5.1506353085
 C         4.4273322378        3.6787854476       -1.9795296016
 C         6.6377032349        3.2838490023       -3.2795746382
 O         6.9554942833        0.9460892324       -1.8757001865
 O         3.5264453830        1.2149227142       -3.3514030883
 C         3.9619284619        1.1330645062       -6.0818275401
 C         4.6565770621        0.6236166847       -7.3100158499
 C         4.9939520738       -0.8585906953       -7.3983008141
 C         6.3033301012       -1.1074480478       -6.5646819844
 C         7.6164650803       -0.4768473023       -6.9508500068
 O         5.0794271629        1.4210846762       -8.1211077855
 O         6.1200105135       -1.5987727024       -5.4393386355
 C         3.8142010750       -1.5774307135       -6.7788572643
 C         4.9791474674       -1.2852665108       -8.9310454648
 H        -7.1305033423       -2.0079424757        4.7056993876
 H        -7.6895240703       -0.3486004647        4.7938336696
 H        -8.5496701267       -1.6259524500        3.8704224452
 H        -8.1620712124       -2.2249207584       -1.0315616066
 H        -9.1529701294       -1.2398658690       -0.0333562845
 H        -5.3143736601       -3.6888869041        1.1683861384
 H        -5.5741741412       -3.4287180904        2.9281110122
 H        -4.6300661681       -2.3718308089        2.0099250759
 H        -9.1132191185       -2.5159523276        2.0383551865
 H        -8.2305549284       -3.6027947476        0.9907327870
 H        -8.0963635012       -3.4759563233        2.7254440960
 H        -7.2093611173       -0.3529482562       -2.1558316152
 H        -8.9730326844       -0.2674202293       -2.3533682006
 H        -7.8319603380        4.9629950702       -0.2617364247
 H        -8.1451099539        3.5540110582        0.8471043070
 H        -6.1018703332        1.5146306303       -2.8040136134
 H        -6.7741526759        2.9647152952       -3.6239588010
 H        -7.5459203454        1.4164321170       -3.8084140601
 H        -9.5947609179        2.1886844187       -3.0438984953
 H        -9.9070857336        3.3033200202       -1.6344596905
 H        -9.0754141217        3.7119328097       -3.0834683862
 H        -6.6949538927        5.2307914486        2.0560898364
 H        -5.9096391276        5.7055534567        0.6616616600
 H        -3.0298488694        3.2115553331       -0.3542973743
 H        -1.6791069001        4.2610530837        0.0787296287
 H        -3.1329680155        5.8789641396        0.7728933448
 H        -2.8587273332        6.1538401596        2.5168839283
 H        -4.3963671831        6.2798196676        1.9797975475
 H        -4.7987146351        3.8461928059        4.0335025393
 H        -3.2032856754        3.0996651150        3.8481027376
 H        -3.2909537320        4.7797181475        4.2348654330
 H        -0.9707323117        2.4260512630       -1.3786883649
 H        -0.3878613492        1.9173733034        0.2294924799
 H        -0.2884127272       -2.9030904566        0.7029711612
 H         0.2529610782       -1.4312634358        1.0658231697
 H        -2.9004921492       -0.8554007055       -2.0418655824
 H        -2.7728888856       -2.1658846808       -0.8939666884
 H        -1.4846544288       -2.1108342782       -2.1577798557
 H         0.5517477813       -1.3274282761       -0.9618798907
 H         0.2427001172        0.2164632606       -1.8740177485
 H         0.7342247607        0.3670193159       -0.2738621147
 H        -1.7137891847       -2.3799964362        3.3261100239
 H        -0.0250707876       -1.7278652579        3.4630601061
 H         3.3318512544       -5.4667401753        4.0109092404
 H         2.4889050877       -4.5922786212        2.7597506567
 H        -1.1819369497       -3.6479674033        5.7491032389
 H         0.1107358663       -2.4269876700        5.9259557324
 H         0.2809641950       -3.9841571979        6.7329532163
 H         0.5105325143       -6.0754986606        3.5792223976
 H         1.4510215321       -6.0857209921        5.1336570788
 H        -0.1701039189       -5.9806846589        5.3152845753
 H         4.9608152953       -3.5839530204        4.2892824874
 H         5.0753742559       -4.3662240083        2.7610174624
 H         6.5684194276       -0.3408394957        0.1039572610
 H         4.8283197654       -0.8344609824        0.0674379570
 H         4.7753168996       -0.4912586111        4.5501452432
 H         6.5057945561       -0.3603083775        4.5281479574
 H         5.7723742236       -1.8279275749        4.8581298475
 H         7.6025470957       -1.5184439722        2.2223237462
 H         6.9524772212       -2.9097064272        3.0411721297
 H         6.6368721351       -2.7115094694        1.3702796344
 H         5.3382781449        2.1163569609        0.3001523735
 H         4.1267085838        1.1945894365       -0.6300597783
 H         5.0630105650        2.8885094803       -5.4826229873
 H         5.9214233538        1.4714295062       -5.2033343489
 H         4.8550539988        4.2371704521       -1.0419367335
 H         3.5449964207        3.2313894818       -1.6110338761
 H         4.2788338959        4.4935851892       -2.7565658788
 H         6.3547632836        3.9245180425       -4.0754905135
 H         7.0636908387        4.0203857298       -2.5931362167
 H         7.3543105180        2.4881258727       -3.5892268664
 H         3.5429379735        0.3787181802       -5.3961301621
 H         3.1219854636        1.7953607435       -6.3945443297
 H         8.1721145490       -1.2508877984       -7.4968154780
 H         7.5062247250        0.3327700888       -7.6252818344
 H         8.1837347931       -0.1464953290       -6.0634846945
 H         2.8909461557       -1.0093301000       -6.8196524667
 H         3.8058993888       -1.8277639654       -5.7971488666
 H         3.6515333234       -2.5717256623       -7.3138227531
 H         4.0042805515       -1.1858784111       -9.3449851219
 H         5.7215183849       -0.6027270978       -9.3812445986
 H         5.3533185449       -2.3256021630       -9.0798961335
 Na       -4.4166410971        0.6056778790        1.3824985407
