155

 C        -8.0143793335       -1.1116143877        3.8552845592
 C        -6.9836672559       -1.2656211900        2.7233201993
 C        -7.2718268488       -2.1339918808        1.5339863577
 C        -6.9020794946       -1.4703802429        0.1159221394
 C        -7.9630383062       -1.4004207117       -0.9614225954
 C        -6.3220559229       -3.4337388083        1.7107990125
 C        -8.7143504402       -2.6970543151        1.5280038148
 O        -5.9489583158       -0.6371762593        2.7117850793
 O        -5.7234239043       -1.3606838391       -0.0965140805
 C        -7.6205176564       -0.1983038061       -1.8710508580
 C        -8.1889622767        1.1894144457       -1.2234644555
 C        -8.0936966867        2.5995812306       -1.8911039063
 C        -6.9905120598        3.5141451687       -1.0951581452
 C        -7.3460191910        4.1074688225        0.2669721013
 O        -8.6280617297        1.0905716415       -0.0564529291
 O        -5.8864656448        3.4671231209       -1.4811881206
 C        -7.6473785694        2.3180651376       -3.2906641599
 C        -9.4270800756        3.4298044218       -2.0157865144
 C        -6.1529858522        4.7880989713        1.0411118260
 C        -5.2393673395        3.6705482789        1.5767257555
 C        -3.7387123716        4.1112676054        2.0834025538
 C        -2.8942967309        2.9348933207        1.6754264628
 C        -1.6280664484        3.1490895674        0.7242977483
 C        -3.3873870594        5.5214776050        1.4881328975
 C        -3.8578611264        3.9544176420        3.6078083844
 O        -5.4964706119        2.5128996104        1.7007696489
 O        -2.9193773476        1.8609008833        2.2404370444
 C        -0.8810024065        1.9686948873        0.3263142869
 C        -1.8138032915        1.0008049078       -0.3348436496
 C        -1.2158080997       -0.4459791791       -0.5898470901
 C        -1.3147368431       -1.1530617112        0.8789313217
 C        -0.2513330920       -2.2404111377        1.3953001132
 O        -2.9655385106        1.2712296351       -0.4923261939
 O        -2.1017354170       -0.8016861457        1.7247308808
 C        -2.1153558997       -1.1906254662       -1.5543323712
 C         0.3102228205       -0.4991001099       -0.9683471371
 C        -0.9151488218       -3.1876810547        2.4271731755
 C         0.1765035043       -4.2330522887        2.6593666096
 C         0.6611829420       -4.5243298577        4.1920415951
 C         1.9520379464       -3.6293944254        4.3790497427
 C         3.2086238849       -4.0306510834        3.5258093930
 C        -0.3965757209       -3.9597589569        5.1892853825
 C         0.9093541398       -6.0319066092        4.3082899608
 O         0.7048200438       -4.8341254931        1.6977134207
 O         1.9154120058       -2.6246712235        5.0670443770
 C         4.3652900057       -2.9867920407        3.6647775720
 C         4.2174478981       -1.7121902234        2.7913582487
 C         5.2485861231       -0.5464075562        3.0450886840
 C         4.7676555416        0.5306713432        2.1069573562
 C         5.3109580307        0.4625244969        0.6567537322
 O         3.4821437608       -1.6991922674        1.8087366581
 O         4.0393056084        1.4178322938        2.4591165701
 C         5.1995872074       -0.0118851344        4.4983376451
 C         6.7528783368       -1.0522169892        2.8104464493
 C         4.7989478765        1.5251265481       -0.2124426281
 C         5.7476183638        1.7299242044       -1.3607949882
 C         5.5356230049        2.9570390470       -2.4612104887
 C         4.5714073269        2.3160555896       -3.5322427206
 C         5.1382888349        1.3968082831       -4.5757953210
 C         4.8421976320        4.1094413423       -1.7151326942
 C         7.0123775171        3.3990656444       -2.8932151535
 O         6.7060012067        1.0410653987       -1.5807421692
 O         3.4139859146        2.6744174438       -3.4829149575
 C         4.2040960350        0.3428933603       -5.2782647690
 C         4.6945112297        0.2603724960       -6.7224373529
 C         5.3302000357       -1.1899760267       -7.1587911115
 C         6.8489705671       -1.3203131733       -6.8130941618
 C         7.7833292945       -0.2090938798       -7.3931470898
 O         4.7770134113        1.2331719355       -7.4314691697
 O         7.2759116180       -2.2251688826       -6.1580888592
 C         4.3433209917       -2.3166755200       -6.6881375135
 C         5.2721257792       -1.1612638827       -8.7474570907
 H        -7.9333706886       -2.0590306311        4.4395161139
 H        -7.7900828392       -0.2336640151        4.4727391785
 H        -9.0292126556       -0.9538866191        3.3593471116
 H        -7.9243407624       -2.3926651701       -1.5542803005
 H        -8.8895528023       -1.2130103184       -0.4868599327
 H        -6.4349164635       -4.2373731749        1.0094196018
 H        -6.5575671846       -3.8797037064        2.6015261534
 H        -5.2087767944       -3.2462594922        1.7931109368
 H        -9.5186094499       -2.0287880486        1.2680906730
 H        -8.9234672916       -3.6496146655        0.9169315713
 H        -8.8625546821       -3.1746255354        2.4725855971
 H        -6.5666092179       -0.1027863232       -2.0331629919
 H        -8.0165417445       -0.4465534759       -2.9177837221
 H        -8.1422548546        4.7854898548        0.0243183094
 H        -7.7885125932        3.4099610558        0.9320034855
 H        -6.5815551741        2.4235880222       -3.2471214690
 H        -8.0550688827        3.0880280043       -4.1108742413
 H        -8.0343162274        1.3196840530       -3.6583783237
 H       -10.2612160806        2.7015624996       -1.9900662421
 H        -9.7408423682        4.0457631130       -1.1969279453
 H        -9.3091022050        4.0824105120       -2.8875739025
 H        -6.5249507608        5.2826902083        1.9652425673
 H        -5.5907076544        5.5798899462        0.5303692495
 H        -1.8647899422        3.6358555534       -0.2459224581
 H        -1.0503113126        3.9265842943        1.2669881897
 H        -3.5774066147        5.6646315602        0.3931035374
 H        -2.3399389904        5.8620318219        1.6229178986
 H        -4.0383233099        6.3066347253        1.9034162028
 H        -4.8295784832        4.0689416693        4.1415407522
 H        -3.5049927105        3.0000193914        3.9085141716
 H        -3.1916838988        4.6714480558        4.1342310675
 H        -0.1603340068        2.3694175178       -0.3607926598
 H        -0.2772218848        1.2947337561        0.9893117300
 H         0.0046348122       -2.7932418858        0.4693003051
 H         0.6992804889       -1.7689513812        1.7029274078
 H        -3.0931420671       -1.2124884139       -1.2015527079
 H        -1.7253497251       -2.2201617428       -1.7396952429
 H        -2.1256714276       -0.6375731984       -2.4394073052
 H         0.7238702489       -1.5511877040       -0.9539986455
 H         0.6071095242       -0.1709549218       -1.9888475413
 H         0.8396196737        0.0018015035       -0.2034811556
 H        -1.8565789577       -3.6065738816        2.0609509030
 H        -1.1817275970       -2.7630126809        3.3928307759
 H         3.6653817792       -4.9681744139        3.9401951204
 H         2.8456838145       -4.1377762753        2.4621026454
 H        -1.4180722738       -4.3684203038        4.8213945467
 H        -0.3627470198       -2.8969958508        5.3036583744
 H        -0.1294081511       -4.5070838261        6.0766412464
 H         0.7531982813       -6.4909755248        3.3573063132
 H         1.9240688594       -6.1875447909        4.6196171212
 H         0.1008821353       -6.4763154689        4.9241581291
 H         4.4243343038       -2.7559800961        4.7796872523
 H         5.3367321448       -3.4755406094        3.3435823062
 H         6.4177413593        0.4563877159        0.8496207203
 H         5.1844912026       -0.5297276926        0.2243713821
 H         4.1924049868        0.5429620818        4.7459920972
 H         5.9375925620        0.7627022219        4.7749323056
 H         5.0629570894       -0.8625798487        5.1798629736
 H         7.4482919858       -0.3586148707        2.3280246563
 H         7.2820090068       -1.2406760113        3.7358353416
 H         6.9173875363       -1.9381471368        2.1273684550
 H         4.6363464053        2.4846354392        0.3258271714
 H         3.8236192031        1.3385219686       -0.7191220816
 H         5.6976536849        2.0643320172       -5.2900944533
 H         5.9252340154        0.8279402342       -4.0546775528
 H         5.4546791284        4.4684125722       -0.9714407334
 H         3.8385115223        3.7837728022       -1.4232406059
 H         4.5628796394        4.8858458917       -2.3562025702
 H         7.0415503469        3.9364945044       -3.7909363724
 H         7.5021839621        3.8079664016       -1.9541834207
 H         7.4625919025        2.4799781499       -3.1203511530
 H         4.2497769819       -0.6078957634       -4.7264297422
 H         3.1285066065        0.6696630730       -5.2705125072
 H         8.2043861624       -0.5685651856       -8.3132394419
 H         7.2482280272        0.7286723231       -7.5592766980
 H         8.6374332089        0.0636388429       -6.7507790789
 H         3.5213656626       -1.9828056062       -6.0423784410
 H         4.9801785414       -3.0043664653       -6.0338499327
 H         4.0250848351       -2.9669670505       -7.5212218718
 H         4.2582180899       -0.9864300100       -9.1974806759
 H         5.8875168597       -0.2764713516       -9.0832946414
 H         5.6113437216       -2.1231939111       -9.1121029231
 Na       -4.3264758229       -0.0235512579        1.2702995831
