155

 C        -8.3015314063       -0.3272040353        2.4725583357
 C        -6.9795560833       -0.7462358501        1.8652136679
 C        -6.7578296398       -2.0054539441        0.8113726750
 C        -6.4649465080       -1.3975925835       -0.6020398523
 C        -7.5941220555       -1.1194850981       -1.6516747711
 C        -5.5624500788       -2.8299021022        1.2280548436
 C        -7.9483441708       -3.0075039387        0.7878219892
 O        -6.0202413682       -0.1222063363        2.2958605271
 O        -5.3660692474       -0.9667434947       -0.8018586225
 C        -7.5388672165        0.2678063759       -2.2704759925
 C        -8.2644486115        1.3250796679       -1.2561393979
 C        -8.6342695811        2.6896651239       -1.7867013577
 C        -7.4400317095        3.5449830974       -1.0948244115
 C        -7.4903912947        3.8309010751        0.4489642842
 O        -8.4380258610        1.0752715627       -0.0860739292
 O        -6.4780824059        3.8723867938       -1.7490253747
 C        -8.6688795176        2.9090817708       -3.2810079075
 C        -9.9465124647        3.2425276917       -1.1977923540
 C        -6.0994444620        4.2820466027        0.8196543269
 C        -5.1351054686        3.1439835450        1.2693713604
 C        -4.0382247109        3.2692832553        2.4179112072
 C        -2.8877393494        2.2786308512        2.1537747376
 C        -1.7588252371        2.7900752482        1.2752854677
 C        -3.4918047127        4.7544270445        2.3470596226
 C        -4.8043446065        2.8381533848        3.7563253185
 O        -5.2995280122        2.0761129929        0.6880823867
 O        -2.9682259965        1.1822229538        2.6969078130
 C        -0.7648928222        1.6476525451        0.9318584516
 C        -1.2299543238        0.6046811322       -0.1226842705
 C        -0.5252575947       -0.7778817203       -0.3348884463
 C        -1.2014286166       -1.8233192633        0.7758754912
 C        -0.6422868940       -3.2617445970        0.8566058571
 O        -2.1804947704        0.9008861857       -0.8314639878
 O        -2.1891805562       -1.4972899895        1.4346723643
 C        -0.9922999114       -1.3861824122       -1.6886842743
 C         1.0245701912       -0.6833463498       -0.2448148936
 C         0.0463022374       -3.4683920690        2.1736556782
 C         0.9384250240       -4.6675688087        2.0526408535
 C         1.5831498596       -4.9958353203        3.4686820367
 C         2.2719221578       -3.7078091149        4.0246282761
 C         3.7811490575       -3.4134906388        3.7854188325
 C         0.4770393909       -5.3516775329        4.5024100785
 C         2.5222741036       -6.2062758017        3.3410830908
 O         1.2959734475       -5.1205382273        0.9649267112
 O         1.6450597908       -3.0119427073        4.8049950892
 C         3.9352746550       -1.8998196696        4.0553223550
 C         3.1931756146       -0.8775669813        3.1600887528
 C         3.2550341799        0.5867087150        3.6738272907
 C         3.2015218423        1.5238727068        2.4527100235
 C         4.5004312163        2.0290349520        1.7762283336
 O         2.5691931482       -1.1351445482        2.1359995763
 O         2.1368563415        1.8688697892        1.9529757748
 C         1.9715270159        0.6913841857        4.6543720952
 C         4.5373348277        0.9425042891        4.5011708023
 C         4.3339172660        2.2800809142        0.2337418586
 C         5.7688664740        2.5585807221       -0.5146164630
 C         5.6140797646        2.9392132752       -1.9755248905
 C         5.2065591646        1.6988763887       -2.9128673533
 C         5.7799235926        1.5390619154       -4.3049857464
 C         4.2967448554        3.9886987155       -2.3024178573
 C         6.9152829866        3.5909603072       -2.4317776851
 O         6.8373018500        2.3833010872        0.0100933048
 O         4.2818591766        0.9897247059       -2.5839768621
 C         5.4383667008        0.1498874824       -4.8702822363
 C         5.3300463187        0.1412453704       -6.4146562061
 C         5.6493507131       -1.3286774215       -7.0981748564
 C         7.2231278143       -1.4692747758       -7.0684119740
 C         7.9416078108       -1.2419291555       -8.3982902343
 O         5.1230530228        1.0831292976       -7.1268196334
 O         7.8125171862       -1.6324036571       -5.9994637971
 C         5.0750903864       -2.5526169381       -6.4103025216
 C         5.0618173315       -1.2827403525       -8.6197218533
 H        -9.0388267354       -0.8339208010        1.8193149208
 H        -8.2729385127       -0.8269020711        3.4368585367
 H        -8.3396839803        0.7785530930        2.5387766457
 H        -7.6357264300       -1.9314373516       -2.3588444681
 H        -8.5867456009       -1.3636077719       -1.1982520244
 H        -5.6190061714       -3.7929478445        0.7642373074
 H        -5.4534347867       -3.0367051400        2.3149002858
 H        -4.6731274400       -2.3490324320        0.8532847154
 H        -8.8888294268       -2.4206589446        0.6144076763
 H        -7.7291453777       -3.7155258822        0.0704377303
 H        -7.8885617689       -3.5586534727        1.7245040052
 H        -6.5178912603        0.6655780507       -2.4086871700
 H        -8.0341145722        0.1655519696       -3.2694281650
 H        -8.2911141842        4.5557586306        0.7324860385
 H        -7.7439880089        2.9213621867        0.9569495152
 H        -7.7603140944        3.2608117714       -3.5543857074
 H        -9.4327583316        3.6389683747       -3.5442793986
 H        -9.0520011797        2.0319073602       -3.7941973172
 H       -10.7484767773        2.6919248842       -1.5820149849
 H       -10.1078057225        2.9312660756       -0.1356381953
 H        -9.9779918342        4.3262802131       -1.2218057445
 H        -6.3255911582        5.1120592871        1.5168875562
 H        -5.6069790991        4.6810890393       -0.0764335837
 H        -2.3336454313        3.2488776610        0.4799318033
 H        -1.1528555368        3.4606444810        1.8952190452
 H        -3.5183409777        5.1007184219        1.2949367068
 H        -2.4869141543        4.9521301966        2.8207046619
 H        -4.3343123029        5.3525343966        2.7631025439
 H        -5.3872379791        3.6711620380        4.1416017374
 H        -5.5252722115        2.0071334322        3.5045592216
 H        -4.1305420157        2.5549082060        4.5444514678
 H        -0.0293957005        2.2335281466        0.3527633874
 H        -0.2755753965        1.4029415501        1.8931866740
 H        -1.3851146960       -3.9933648909        0.6429323456
 H         0.0932861173       -3.3026545690       -0.0026051324
 H        -0.2365706457       -1.4768598094       -2.3701063210
 H        -1.7330659368       -0.8426192816       -2.2128403701
 H        -1.3363234217       -2.3710089570       -1.6118619718
 H         1.4795088144       -1.6789486336       -0.3043721417
 H         1.3357638264       -0.1671553579       -1.1840935424
 H         1.5170258663       -0.0963383595        0.6070803991
 H        -0.7365941755       -3.4729098899        2.9175212172
 H         0.6578164178       -2.5751024576        2.3289926489
 H         4.2059206711       -3.8973759226        4.6144045003
 H         4.2284493148       -3.8550608547        2.9010668376
 H        -0.2348507170       -6.0840915532        4.1775637349
 H        -0.0947889099       -4.5550708976        4.7954664926
 H         1.0413039623       -5.8656920010        5.3707106506
 H         3.3634108598       -6.0136022590        2.6419176171
 H         3.0125538980       -6.5769140691        4.2591271361
 H         1.9824642688       -6.9965931105        2.8379119275
 H         3.3726578930       -1.8813567765        4.9994119672
 H         4.9695070032       -1.4844818026        4.2657223338
 H         4.7471653939        3.0114142364        2.3250475084
 H         5.3712863668        1.4138316232        1.8805929514
 H         0.9664897210        0.7922695339        4.0730222870
 H         2.2005563858        1.6819762828        5.1659352110
 H         1.9258249586       -0.1889715916        5.3064101772
 H         4.6868830323        2.0420027708        4.7114526201
 H         4.4478349470        0.5221283707        5.5501030218
 H         5.4256219119        0.5442547468        4.0466837163
 H         3.6596754377        3.1395327398        0.0787178697
 H         3.8829568866        1.4872623027       -0.3210665571
 H         5.2323583031        2.2939947982       -4.9237630238
 H         6.8361439639        1.7246020710       -4.3068068578
 H         4.3047686698        4.7415671154       -1.4466529957
 H         3.3866332843        3.5207852920       -2.4562308664
 H         4.4908596137        4.5417974876       -3.2478405711
 H         6.7904863829        3.8263933451       -3.4998099916
 H         7.1682585682        4.3928581049       -1.8500569007
 H         7.7595947571        2.8881545195       -2.4864539125
 H         6.2602650613       -0.5837225082       -4.5907399971
 H         4.4628755586       -0.3222729954       -4.5599148095
 H         7.7487632472       -2.0020935780       -9.1680080181
 H         7.5862845982       -0.2738233905       -8.7893180961
 H         8.9997117999       -1.1157890308       -8.2534182909
 H         5.5681271103       -3.3994551134       -6.8927550668
 H         4.0785834261       -2.5620556797       -6.5576743610
 H         4.9356488561       -2.5072091257       -5.3143378982
 H         4.0329603841       -1.0358836384       -8.4595345373
 H         5.2654810480       -0.4417387415       -9.1978241168
 H         5.0329457639       -2.2342729950       -9.1025913357
 Na       -4.0469350442       -0.0453679504        0.8221974225
