155

 C        -7.9677543720       -1.4226942822        2.5541675164
 C        -6.8744125459       -1.2074109632        1.5708859447
 C        -6.9175624754       -2.0599108483        0.3233368566
 C        -6.5080265311       -1.2290335792       -0.9657915817
 C        -7.6564094728       -1.0922862771       -2.0943398552
 C        -5.7785487184       -3.1789391155        0.4176714504
 C        -8.2693836825       -2.8514527299        0.1951113636
 O        -5.9081360908       -0.4835963603        1.8288582898
 O        -5.3760353734       -0.8349513313       -1.1787275234
 C        -7.8306985937        0.3490987855       -2.4937038279
 C        -8.3339291312        1.2315372442       -1.3370587515
 C        -8.6965341145        2.6714602759       -1.5218992439
 C        -7.3033751276        3.3898310185       -1.1215869035
 C        -7.2552314420        3.9359217639        0.2761360190
 O        -8.1836968144        0.7338249674       -0.1943198694
 O        -6.4618734078        3.7080169027       -1.8898698462
 C        -8.9228290545        2.9416697326       -3.0575761926
 C        -9.8755244959        3.1292778920       -0.6817429284
 C        -5.8031266590        4.3056071327        0.7910933348
 C        -4.9261014245        3.1070343282        1.0047644664
 C        -4.0991692512        2.9966077008        2.4178443619
 C        -2.8447327479        1.9443139638        2.0982476018
 C        -1.4792286999        2.4642999013        1.4157176708
 C        -3.5232338319        4.4250814441        2.7703936316
 C        -4.9393907503        2.3657149497        3.5553196745
 O        -4.8831306050        2.2228606312        0.1942990023
 O        -2.8925056577        0.7591698051        2.5048799232
 C        -0.5769533431        1.3364971555        0.8408721932
 C        -1.3317593894        0.5168792290       -0.1960078564
 C        -0.5615806411       -0.7461441479       -0.7181457339
 C        -1.2301114341       -1.8546592002        0.1729386967
 C        -0.3879613024       -3.1011999621        0.5494500014
 O        -2.4701747224        0.7714080996       -0.5549019537
 O        -2.4494179318       -1.8135489408        0.4980371668
 C        -0.8795206608       -1.0972845645       -2.2413867371
 C         0.9498571650       -0.6668589538       -0.4829729007
 C         0.4695739345       -2.9864207734        1.8503322133
 C         1.3884112134       -4.2464281210        1.8460592188
 C         2.2014782058       -4.7465475252        3.1563325853
 C         2.3098796518       -3.4654570712        4.1565301308
 C         3.6823009418       -2.8425657303        4.2699335124
 C         1.3793815233       -5.8025337195        3.8686490105
 C         3.4782941960       -5.3432457043        2.5476388682
 O         1.6707009324       -4.7407418821        0.7402964101
 O         1.3025141891       -3.0743383837        4.7244493504
 C         3.7689247583       -1.3763361264        4.6873999915
 C         3.1718788325       -0.4202524749        3.5642156774
 C         2.5191278048        0.9067901298        3.9556613838
 C         2.6924237528        1.8956465554        2.7450932393
 C         4.0446515088        2.0784343290        2.1377724608
 O         3.0803861320       -0.7070397712        2.3793132622
 O         1.7439493001        2.5010809952        2.2158201549
 C         1.0370957695        0.5866497594        4.3386528271
 C         3.2538144896        1.7285277152        5.1369773172
 C         3.8922890249        1.9284826195        0.5271530608
 C         4.9162627619        2.9822585974       -0.1122360794
 C         5.3935786934        2.8325191071       -1.5899612542
 C         5.4508664948        1.2905469498       -2.2346782835
 C         5.3200721571        1.1018792302       -3.7928474437
 C         4.5867494987        3.7648130985       -2.6171080238
 C         6.8715525203        3.3480422488       -1.6461107114
 O         5.3345901633        3.8750473815        0.5426998408
 O         5.4603647578        0.3512485120       -1.4715581107
 C         5.8253869341       -0.2083249628       -4.4633561868
 C         5.6413847092       -0.0278321206       -5.9672839407
 C         5.7375124652       -1.3462932246       -6.9454998208
 C         7.2940555089       -1.5851457982       -6.9218125124
 C         8.1290476037       -1.4302272862       -8.2391152839
 O         5.6119719112        1.0331794114       -6.4896674514
 O         7.8767615620       -1.8648724827       -5.8648981213
 C         4.9518879309       -2.5666100434       -6.4263545222
 C         5.2748972885       -0.8805358286       -8.3516558370
 H        -8.4029354316       -2.4167440645        2.4189214470
 H        -7.4553973502       -1.1488294377        3.5236159148
 H        -8.8749128923       -0.8268620952        2.3416912777
 H        -7.1351603229       -1.5458897834       -2.9962264113
 H        -8.5661497534       -1.5576838936       -1.8245891597
 H        -5.8115882733       -3.8711286268       -0.4445481158
 H        -5.9463611791       -3.7591066121        1.3179817360
 H        -4.8421850279       -2.7114127824        0.4537065566
 H        -9.1388523852       -2.1503154785        0.2451633049
 H        -8.2891475639       -3.4178408331       -0.6637884278
 H        -8.2817507316       -3.6488931719        0.9618274335
 H        -6.8845432183        0.8194334304       -2.6802191287
 H        -8.3755555811        0.4002503279       -3.4772760573
 H        -7.8331886373        4.8440610646        0.1709363806
 H        -7.7537365483        3.2307761653        0.9862084398
 H        -8.2197447885        2.4620859116       -3.5909919808
 H        -8.8232309298        4.0032898605       -3.3260541955
 H        -9.8559659104        2.4822181642       -3.3896258563
 H       -10.6986001099        2.6657376904       -1.1098938025
 H        -9.6923641111        2.9950120849        0.3833439220
 H       -10.1837191705        4.1999558856       -0.8381427866
 H        -6.0510871467        4.6393247109        1.7659165128
 H        -5.3807958662        5.2040565649        0.2596155583
 H        -1.8515722390        3.0844083037        0.5900480755
 H        -0.7956356614        3.0354280647        2.0888892725
 H        -2.5428150967        4.4815472838        2.2546341004
 H        -3.2933118500        4.4580873394        3.8446246540
 H        -4.2447235414        5.2052310718        2.4231931616
 H        -5.8298400311        2.9791600730        3.5970117647
 H        -5.0917484453        1.3304609534        3.3359289300
 H        -4.4329942056        2.4134285217        4.4899459056
 H         0.3398267581        1.7679845504        0.4465642728
 H        -0.2247067731        0.7151561973        1.6914788386
 H        -1.0263172540       -3.9654977742        0.8199904756
 H         0.2683042840       -3.4707233642       -0.2146723405
 H        -1.8972030745       -1.2535862061       -2.3347652543
 H        -0.4092802291       -2.0096469233       -2.5195355504
 H        -0.6007459650       -0.3735615903       -2.9922259439
 H         1.2932977237       -1.5783878806       -0.8874178159
 H         1.3049846823        0.1576170338       -1.1106883149
 H         1.1441330700       -0.6611556184        0.6306872669
 H        -0.1199902762       -2.9388933402        2.7324075172
 H         1.0365892589       -2.0321806721        1.8972611602
 H         4.2328485850       -3.4587602509        4.9517056775
 H         4.1870619520       -2.7980692543        3.3290412304
 H         0.8156717195       -6.3560909032        3.1694676262
 H         0.6641609056       -5.3994136474        4.5210352546
 H         1.9833467845       -6.5063959550        4.5496261811
 H         3.7831734819       -4.8889696748        1.6526205727
 H         4.2812999672       -5.3881435348        3.3089023013
 H         3.3298362650       -6.4588190275        2.4321892612
 H         3.1736153050       -1.1960937407        5.5969029074
 H         4.8057292807       -1.0525104271        4.8775754828
 H         4.2186956550        3.1866738420        2.2086382245
 H         4.9140411288        1.5848963705        2.6383101305
 H         0.5183524106        0.0020594061        3.4599871352
 H         0.5376612515        1.5806280437        4.5785043289
 H         1.1446829334        0.0788028435        5.3017675027
 H         2.6977398145        2.6722042750        5.2759256678
 H         3.1284032192        1.1329621055        6.0477226458
 H         4.2892363049        1.8438817489        4.8604517646
 H         2.8381384961        1.8889944647        0.2855678156
 H         4.2920744363        0.9304183558        0.2918232276
 H         4.3038353399        1.3538771700       -4.0020438715
 H         5.8780708452        1.9537194322       -4.2331059709
 H         4.4444493972        4.8069227302       -2.1568432210
 H         3.5998928317        3.4705425297       -2.7557963694
 H         5.1189827480        3.8039429137       -3.5947158666
 H         7.2286327811        3.2586517202       -2.6871400008
 H         6.9072245411        4.3778434800       -1.5091042129
 H         7.5399349866        2.9641288341       -0.9014007912
 H         6.9208569556       -0.4032243064       -4.4204096192
 H         5.2826583238       -1.0919207406       -3.9668190085
 H         9.1518753781       -1.6894118914       -7.9443047529
 H         7.8274712371       -2.2360785388       -8.9440766389
 H         8.0960504244       -0.4853409842       -8.7287814339
 H         5.0161411611       -2.6044961440       -5.2833796495
 H         5.2711496790       -3.4093964970       -6.8830660211
 H         3.9003205538       -2.3705239599       -6.4094055040
 H         4.2227184736       -1.1320180564       -8.5096624672
 H         5.5278957803        0.0994503613       -8.4348754592
 H         5.7339486700       -1.3439926419       -9.1871758375
 Na       -4.1070957159        0.0225749134        0.5932573888
