155

 C        -7.1661428092       -4.4513380588       -3.4845711897
 C        -5.9806521368       -3.4118174901       -3.3604039432
 C        -5.4561941571       -2.5283568129       -4.5228798744
 C        -5.7613781134       -0.9666633386       -4.1053086985
 C        -6.8891832087       -0.2779346090       -4.9026648430
 C        -3.9014682326       -2.6454994548       -4.6454275304
 C        -6.0706191715       -2.9313172026       -5.9317950843
 O        -5.4558065646       -3.3998630487       -2.2598786179
 O        -5.0173047500       -0.4630717984       -3.2746263802
 C        -7.7043351083        0.5946144025       -4.0127271792
 C        -8.4490373667       -0.2572073290       -2.8779114810
 C        -9.3205176056        0.3964497557       -1.6872555619
 C        -8.3134404120        0.7444760437       -0.5121931899
 C        -8.2133425131       -0.2633208689        0.6737203437
 O        -8.1847874541       -1.4457540544       -2.9230983561
 O        -7.9018857515        1.8793637128       -0.4869186825
 C       -10.1564465174        1.6157511623       -2.2134592694
 C       -10.2714295193       -0.7970421192       -1.3441431212
 C        -7.2307439743        0.2788884802        1.6709727135
 C        -5.8282895834       -0.1889394576        1.1931067898
 C        -4.5096704118       -0.4159241090        2.2475433885
 C        -3.2194328938       -0.5449544120        1.4148669049
 C        -2.0965114900        0.5426545245        1.3851869277
 C        -4.5587560759        0.6716801512        3.2901001582
 C        -4.8256991402       -1.8805399640        2.8230117101
 O        -5.7451388806       -0.3300330151       -0.0174924113
 O        -3.1244428804       -1.5745720917        0.7425418304
 C        -1.1353548389        0.5138575816        0.1893156285
 C        -1.7219316090        0.7102272218       -1.2499127834
 C        -0.8556758357        0.1372153580       -2.3778830820
 C        -0.8590096940       -1.4075683461       -1.9975098461
 C         0.3316613203       -2.3865627300       -2.4190122385
 O        -2.7950000068        1.1921441357       -1.4780327516
 O        -1.9075152806       -1.9442315804       -1.7179869382
 C        -1.5157179157        0.2026584935       -3.7828606556
 C         0.6383852250        0.6823376390       -2.3104656838
 C         0.8066957328       -3.2661838514       -1.2151193916
 C         1.4114524654       -2.4327872388       -0.0381896941
 C         1.2207734799       -3.1164252633        1.3929114633
 C         1.2961629639       -1.9966485572        2.4589201210
 C         2.6427585299       -1.5628661536        3.1502497816
 C        -0.1062570627       -3.8486206651        1.5033947406
 C         2.5175648439       -4.0024501091        1.5155323823
 O         2.1383706336       -1.4796716378       -0.2496390056
 O         0.2720545917       -1.5185929533        2.8861097587
 C         2.4318773601       -0.3655588915        4.0771126584
 C         3.0585765747        0.8659946311        3.4757985019
 C         3.2817219979        2.1616110331        4.4302591280
 C         2.5293846268        3.2762394015        3.6340233153
 C         3.2432434589        4.3331632426        2.6765138359
 O         3.4477045519        0.7588754506        2.3126005206
 O         1.3283123654        3.3062912114        3.6228090759
 C         2.6000974482        2.2246893935        5.8360790111
 C         4.7496352496        2.5166459908        4.5687008679
 C         3.0408919053        3.9107915547        1.1864943138
 C         3.7620740394        5.0149397153        0.1738555253
 C         4.0783096182        4.4908294438       -1.3599802906
 C         5.0479782983        3.2340634136       -1.2772475038
 C         6.1151464388        3.2034733750       -0.1189949367
 C         2.8140263863        4.0275655129       -2.1157898666
 C         4.7177232189        5.6666858968       -2.2843238823
 O         4.0126437398        6.1429888216        0.4788056022
 O         4.9250288048        2.2764644210       -2.0066107061
 C         6.2417335598        1.7049580460        0.3820419483
 C         7.6864483604        1.5042324819        1.0139831886
 C         8.4346338481        0.0796701456        0.7117431771
 C         7.8310799126       -0.9210181436        1.6409992546
 C         7.9985790223       -2.4569319756        1.3434878633
 O         8.2146714018        2.3442100826        1.6478798411
 O         7.4953261393       -0.5849205718        2.7365797551
 C         8.3310610245       -0.0924821727       -0.8063824705
 C         9.9432318709        0.1838499936        1.1484258572
 H        -7.0319508036       -5.1846121154       -2.6880477058
 H        -8.1693298171       -4.0566353484       -3.5164847257
 H        -6.9525885295       -5.1396126633       -4.3029069107
 H        -6.4935595516        0.3253293849       -5.7600595185
 H        -7.6003879248       -0.9116398774       -5.4214259985
 H        -3.6953631622       -1.8920002822       -5.3629708547
 H        -3.5143966596       -3.6440170240       -4.9688853983
 H        -3.4079645412       -2.3475536063       -3.6860894258
 H        -7.0900074233       -3.0597736457       -5.8245161139
 H        -5.6882756361       -2.3403450495       -6.7193738827
 H        -5.7036953821       -3.8983719907       -6.2162341523
 H        -6.9132119480        1.3604792999       -3.5789119646
 H        -8.4290801592        1.1861934331       -4.5112688016
 H        -9.2200258660       -0.2682750186        1.1980716514
 H        -8.0111744249       -1.2463627713        0.2769284937
 H        -9.5381007998        2.4045946448       -2.4257933843
 H       -10.8062621160        1.9239444814       -1.4917425616
 H       -10.6815379840        1.3648766946       -3.1691292261
 H       -11.1615857036       -0.7578852326       -2.0882874941
 H        -9.7630730642       -1.7783257789       -1.3763377828
 H       -10.6057905175       -0.5046499775       -0.3525068961
 H        -7.4313963786       -0.0330320064        2.7329657417
 H        -7.0541357171        1.3210077654        1.6634239236
 H        -2.4848846556        1.5558004270        1.4513691946
 H        -1.4848137212        0.3700302353        2.3046226356
 H        -4.4300456889        1.6356653775        2.7843640701
 H        -3.8974602338        0.4079284874        4.1893460532
 H        -5.5734883316        0.6200099738        3.7602540667
 H        -5.1825789944       -2.5719134091        2.0787003267
 H        -3.9770252496       -2.1148132405        3.4753913141
 H        -5.7189486063       -1.7398017325        3.4968271149
 H        -0.3014594010        1.2319436007        0.1773894491
 H        -0.7111056207       -0.4636316026        0.1405397943
 H        -0.0224746641       -3.0913345545       -3.1688234864
 H         1.2827619526       -2.0661670345       -2.8931515378
 H        -1.1388449740       -0.6034828510       -4.4983891179
 H        -1.3717800659        1.1246876460       -4.3643755950
 H        -2.6570913469        0.1284964025       -3.7175696462
 H         1.2491979617        0.3906505997       -3.1748927067
 H         0.7842509552        1.7183751309       -2.1069556727
 H         1.2253507452        0.3294773457       -1.3935296738
 H         1.5866609884       -3.8754495150       -1.5921098904
 H         0.0443222063       -3.9049297734       -0.7692418682
 H         2.8666501451       -2.3466082998        3.9268120979
 H         3.5341816751       -1.4089431893        2.5013561646
 H        -0.1371627408       -4.7988096554        1.0794807877
 H        -0.8756420839       -3.2513279114        1.0692379687
 H        -0.4672362876       -3.9391107580        2.5923449436
 H         3.4648923583       -3.4736168369        1.5798873913
 H         2.3935213915       -4.6849031078        2.4274264905
 H         2.6544476264       -4.6517066559        0.7018801118
 H         1.3951336327       -0.1617803231        4.2401734282
 H         2.8787857773       -0.5704995336        5.0361479774
 H         2.9243186325        5.3255140370        2.9082389437
 H         4.2544310806        4.2394225424        2.9747562391
 H         1.5977593947        2.2494895978        5.7363376353
 H         2.9777922623        3.0784715423        6.3295982325
 H         2.9963106646        1.5087634401        6.5274747109
 H         5.2507105466        2.9981986514        3.7464083159
 H         4.9320835303        3.1553711124        5.4428064550
 H         5.2635879829        1.6087377962        4.8314936549
 H         1.9551001657        3.7258737784        0.9576189243
 H         3.5605708620        2.9373062031        1.0651415553
 H         7.0274506594        3.6878381438       -0.4560734246
 H         5.8193286707        3.9212672326        0.6938514599
 H         2.1552908792        4.8536774304       -2.1132114829
 H         2.2940868042        3.2198083625       -1.5727046521
 H         2.9518309682        3.6847254912       -3.0821865178
 H         4.6733695380        5.2088526453       -3.2453593536
 H         4.0831783625        6.5977343092       -2.1096703366
 H         5.6587113588        6.0393420772       -1.8772107111
 H         5.5986492338        1.4209622314        1.3236921420
 H         6.0940604795        0.9923328336       -0.3719293124
 H         7.1765562911       -2.9425433562        0.7999476989
 H         8.8544483952       -2.6925726102        0.7246821639
 H         8.1043522987       -3.0720842926        2.2474494352
 H         7.4232861352       -0.3168481029       -1.2571521312
 H         9.1380349463       -0.8707716815       -1.0413625031
 H         8.6124008774        0.8829546907       -1.3332813183
 H        10.4710744761       -0.7352332198        1.1382350724
 H        10.5338474591        0.9606712696        0.6294138969
 H        10.0236749196        0.5590859676        2.1950696404
 Na       -4.2795289626       -1.6748400675       -1.2673406842
