155

 C        -7.0603714072       -4.3281897626       -3.7254199761
 C        -5.9635528212       -3.3969852828       -3.4389562700
 C        -5.3851053416       -2.5488896772       -4.6378946887
 C        -5.8370801931       -1.0842059315       -4.1983028987
 C        -6.8495600719       -0.1282378409       -4.9221506401
 C        -3.8068527293       -2.7411322020       -4.6033810460
 C        -5.8722455656       -2.9558857978       -6.0917382454
 O        -5.4749602943       -3.2650523559       -2.3533429737
 O        -5.2551466403       -0.5815830335       -3.2565386101
 C        -7.8616795295        0.5656055641       -3.8333222358
 C        -8.2874746778       -0.4280764124       -2.7963575841
 C        -9.3542841351        0.2463411916       -1.7132398369
 C        -8.4513064702        0.5447950749       -0.4980165354
 C        -8.3286025773       -0.4254630600        0.7451432943
 O        -8.0238820897       -1.6174666353       -2.8093761515
 O        -7.9036867292        1.6255210017       -0.4900699014
 C        -9.8912530015        1.5762627082       -2.2730645361
 C       -10.5234944838       -0.7393681852       -1.4966562005
 C        -7.1781263377        0.0444712345        1.6809762623
 C        -5.6747873545       -0.1442217118        1.0816103020
 C        -4.5194606580       -0.3388018049        2.1431326977
 C        -3.2035874763       -0.5159749608        1.3735301797
 C        -2.1265312253        0.6038616162        1.4738084758
 C        -4.4314187041        0.6235652976        3.2606541448
 C        -4.8967215449       -1.8083652581        2.7218815409
 O        -5.4768974712       -0.3278891389       -0.1047710635
 O        -2.9682680155       -1.5388999732        0.7747587485
 C        -1.1249022143        0.4353789093        0.3477240235
 C        -1.7637948569        0.5541040561       -1.0436739927
 C        -1.0192917057        0.0360100731       -2.3353569880
 C        -0.8719020954       -1.5425804640       -2.0846480662
 C         0.3723946035       -2.3057521876       -2.5499928347
 O        -2.7445413970        1.2231666091       -1.1547594524
 O        -1.7558582717       -2.1625668658       -1.4909929659
 C        -1.9279529386        0.3563708443       -3.5992156957
 C         0.2815873685        0.7553391320       -2.6679073439
 C         0.8184997731       -3.3645310223       -1.4062368801
 C         1.2399050332       -2.5034058827       -0.0839866623
 C         1.1242293378       -3.2251199296        1.3668439524
 C         1.1364539040       -1.9822344896        2.4782737850
 C         2.3643739630       -1.5704582670        3.2432195832
 C        -0.1957697788       -3.9741717540        1.5289201684
 C         2.2805331883       -4.2359488989        1.5536050461
 O         1.8431781695       -1.4658566140       -0.2678704211
 O         0.0005472995       -1.5663004433        2.7182130355
 C         2.2003314918       -0.2019910912        4.0537429100
 C         3.1147967934        0.9088609310        3.5555825048
 C         3.2811426326        2.2173891608        4.3356159559
 C         2.5686873273        3.3289294983        3.4292731675
 C         3.2973280383        4.2253864978        2.4442206535
 O         3.8748659682        0.8178309004        2.5908917868
 O         1.3545561968        3.3895832076        3.4811666726
 C         2.5125356603        2.1155518604        5.6471123090
 C         4.7811091270        2.2781453333        4.6000109559
 C         3.1085157004        3.7929769170        1.0088384763
 C         3.7134683777        4.9822313404        0.1185737731
 C         4.1880165577        4.5032402718       -1.3085934585
 C         5.1662853818        3.2939707961       -1.1757130530
 C         6.1534519251        3.2709161453       -0.0653794237
 C         2.9484440366        4.0819807338       -2.0487096964
 C         5.0558525335        5.6057489038       -1.9369407074
 O         3.6593497304        6.1649062973        0.4274363316
 O         5.2533335596        2.4796454795       -2.0484957666
 C         6.5162946046        1.8893177793        0.2562431863
 C         7.7888020449        1.5868398128        1.0973362656
 C         8.6110804079        0.2598745041        0.8281848552
 C         7.7769021381       -0.7576318730        1.7655088343
 C         7.5414782846       -2.1779782108        1.3950445900
 O         8.0836587993        2.3445171446        2.0054435457
 O         7.3907967331       -0.3503621325        2.8790219620
 C         8.5965803632       -0.1593967230       -0.7123542063
 C        10.0673485722        0.5068653231        1.3370515483
 H        -7.1248620944       -4.9292071769       -2.8671375830
 H        -7.9132391651       -3.7176351360       -3.7739992939
 H        -6.9686507652       -4.9668283135       -4.6545821058
 H        -6.3320295915        0.6848194204       -5.3748880820
 H        -7.4273494016       -0.4673837255       -5.7700573608
 H        -3.2309719805       -2.0317106290       -5.2194302098
 H        -3.6373654790       -3.7432648283       -4.8684208509
 H        -3.4930147845       -2.6240769734       -3.5690002393
 H        -6.8041745495       -2.3314868561       -6.3548866516
 H        -4.9835233317       -2.8416559256       -6.7443937584
 H        -6.3005532438       -3.9581215655       -6.3380739640
 H        -7.2412897879        1.2572480528       -3.3632743113
 H        -8.7342051325        1.1912259920       -4.1879299986
 H        -9.1278997005       -0.2403773596        1.3894413499
 H        -8.3951754910       -1.4379143365        0.3347915609
 H        -9.0896195551        2.4037292195       -2.3013717025
 H       -10.6522999625        1.9638718953       -1.5165727813
 H       -10.4375782053        1.4386782278       -3.1788090644
 H       -10.9351569652       -0.7879113113       -2.4265108772
 H       -10.0345059523       -1.6551276343       -1.2075375261
 H       -11.2397216558       -0.4153603355       -0.7537416634
 H        -7.2255747544       -0.4526465393        2.6112451259
 H        -7.2550350667        1.1401616371        1.9265153748
 H        -2.5447618681        1.6110583186        1.4509341615
 H        -1.5734213094        0.5213263449        2.3776395579
 H        -4.3076945831        1.6369451250        2.8950436786
 H        -3.6605867415        0.3007198318        3.9006034307
 H        -5.2789915970        0.4997065292        3.8950971599
 H        -4.6347396354       -2.6433766010        1.9940869542
 H        -4.3888290639       -1.8588732974        3.7230767463
 H        -5.9719416275       -1.8300158782        2.9364859822
 H        -0.3324137195        1.1835109810        0.2256167409
 H        -0.6280890106       -0.5781517465        0.4402098315
 H         0.2335773372       -2.8988242136       -3.4513068318
 H         1.2222059704       -1.6871480546       -2.8201187191
 H        -1.4801419213       -0.0189507467       -4.4776500416
 H        -2.0612418873        1.3997109359       -3.7683129608
 H        -2.8765493184       -0.0900597959       -3.5839172682
 H         0.6242667825        0.4261780230       -3.6356728815
 H         0.1735129969        1.8604878491       -2.6599406998
 H         1.0778064424        0.6774243280       -2.0266384645
 H         1.6239254587       -4.1424689390       -1.6532063816
 H        -0.1140718692       -3.8150594491       -1.1067568539
 H         2.6100854668       -2.2994391310        3.9499068911
 H         3.1250929778       -1.4358310990        2.5213210357
 H        -0.1393924027       -4.8483081362        0.8340947977
 H        -1.1594812252       -3.4196265629        1.3828940386
 H        -0.3596161604       -4.2863628678        2.5322577421
 H         3.2537754460       -3.8164728069        1.3901492664
 H         2.2669425499       -4.7135008403        2.4903679879
 H         2.2002164269       -5.0661646392        0.7967421558
 H         1.1788621547        0.2141983770        4.0043776740
 H         2.4614182118       -0.3694696987        5.1002643409
 H         2.7176317592        5.1622447239        2.6501456619
 H         4.3745056943        4.3776001418        2.7550333609
 H         1.4441454423        1.7882395243        5.3145768543
 H         2.5490479725        3.0246893554        6.3200057860
 H         3.0604159381        1.4666292334        6.3693718958
 H         5.2851204481        2.5183779790        3.6563280613
 H         5.0706396358        3.1163118621        5.2461026270
 H         5.1741368041        1.3493084523        5.0338550186
 H         2.0941402167        3.5186358375        0.7315482760
 H         3.7553402686        2.9102713360        0.9341453334
 H         6.9925234774        3.8930325123       -0.4131353768
 H         5.8289601046        3.8949772596        0.7399922815
 H         2.0794583302        4.7880899218       -1.9365706099
 H         2.6456850840        3.1413209531       -1.7133103348
 H         3.2037927870        3.9421339835       -3.1434642910
 H         5.7753975213        5.1743061855       -2.6881645225
 H         4.3714155074        6.2286230571       -2.3944246284
 H         5.3757644230        6.1830529188       -1.0891957225
 H         5.8720294914        1.4790395867        0.9316835841
 H         6.5675603271        1.3155301145       -0.7148408503
 H         6.5743283048       -2.3363533615        0.9132115682
 H         8.2876582591       -2.5513485112        0.6868721374
 H         7.5803972278       -2.8977212191        2.2029973894
 H         7.5775248277       -0.5993144159       -0.9611827041
 H         9.3523139690       -0.7906730007       -0.9099100606
 H         8.6003494022        0.6773994344       -1.3578687301
 H        10.7624885913       -0.1930503334        0.7815572658
 H        10.4405139228        1.4904233326        1.1279446972
 H        10.2784595474        0.4192501054        2.3739179629
 Na       -4.0138421941       -1.5089343557       -1.4400018766
