155

 C        -6.9878516358       -4.3942427989       -3.6673735168
 C        -5.8305043649       -3.3636200302       -3.5038421934
 C        -5.2753536457       -2.5171544649       -4.7190671758
 C        -5.6830004324       -1.0464637552       -4.2514891145
 C        -6.9444292876       -0.3964459443       -4.8964375658
 C        -3.7963285042       -2.7417160592       -4.7398113050
 C        -5.8263205188       -2.7734043095       -6.1434993216
 O        -5.3297077055       -3.3234960894       -2.4028689570
 O        -4.9982685180       -0.4492214302       -3.4563941798
 C        -7.7379509919        0.4843091339       -3.8746634951
 C        -8.3607721160       -0.4599518059       -2.8092122260
 C        -9.3140679706        0.1907398215       -1.7549064823
 C        -8.2752056614        0.5970711738       -0.5385606855
 C        -8.1377087492       -0.5443059170        0.4376168211
 O        -8.0957946128       -1.6122665468       -2.7505832816
 O        -7.7257911992        1.6628689709       -0.4839407616
 C       -10.0912164827        1.4434948750       -2.2565867014
 C       -10.3786763057       -0.9508512117       -1.3390203735
 C        -7.1235144303       -0.3762061593        1.4625655338
 C        -5.6530714223       -0.4642188636        1.0485963633
 C        -4.4822834058       -0.5525052373        2.1672070865
 C        -3.1501250526       -0.6003446436        1.4600252135
 C        -2.0573105296        0.4901778690        1.6274676303
 C        -4.5958882983        0.6733542281        3.0924856039
 C        -4.6919933231       -1.8781818058        3.0027176405
 O        -5.5159688729       -0.6459938548       -0.1826846564
 O        -3.0030193828       -1.5192354842        0.6830236303
 C        -1.1265888047        0.6503562737        0.3478705170
 C        -1.9236393805        0.4934632995       -0.9580971511
 C        -1.1492962235        0.1167308344       -2.3080107793
 C        -0.8850828039       -1.5730227191       -2.3306032723
 C         0.5461963597       -2.1879172385       -2.5564716880
 O        -3.0943823240        0.8146220891       -0.9719927213
 O        -1.8469438860       -2.3297091953       -2.2597198607
 C        -2.0333966819        0.3778308972       -3.5555872077
 C         0.1302812827        0.9660163172       -2.3690800375
 C         0.9833525775       -3.2125949809       -1.4064478971
 C         1.0119514066       -2.5344314717        0.0611800556
 C         0.7955233854       -3.2749329262        1.3916648220
 C         0.7497702579       -2.0083993138        2.3444314016
 C         2.0982029768       -1.3520456639        2.7690116774
 C        -0.4181086134       -4.1617070791        1.4531662872
 C         1.9387484856       -4.2737803942        1.5603399417
 O         1.2208936400       -1.3347222958        0.0987758021
 O        -0.3777403843       -1.6539435994        2.6641299571
 C         1.9214247633       -0.0102364564        3.4774034330
 C         3.2264093377        0.7885649365        3.4457070157
 C         3.2453994974        2.1271970632        4.3659243690
 C         2.5685348505        3.1023868175        3.3502266909
 C         3.4836217567        3.8273808327        2.2138091378
 O         4.2327527808        0.5099344532        2.7562107534
 O         1.3900495164        3.1366274106        3.2461416203
 C         2.3137533456        1.8903485994        5.5787118692
 C         4.7057900633        2.2841161516        4.7900027724
 C         2.9794547105        3.7402169743        0.6984470106
 C         3.5640629757        4.9801459777       -0.0476904517
 C         4.3839370237        4.8351052601       -1.3805479349
 C         5.4143253901        3.5589636466       -1.2299811228
 C         6.4018783836        3.4904577962       -0.0447533036
 C         3.3685467502        4.3771952260       -2.4813160599
 C         5.2610637551        6.0980463075       -1.6128669746
 O         3.2763648499        6.0471855239        0.4086146204
 O         5.4403699739        2.6669951368       -2.0239552434
 C         6.6951183248        2.0243740773        0.2359806348
 C         7.9090076621        1.8855720023        1.2562858333
 C         8.7415398521        0.3973743751        1.3367726208
 C         7.8128205277       -0.5311723789        2.0795048807
 C         7.0511434006       -1.6604182369        1.4474092315
 O         8.2460749047        2.7534321896        1.9547695272
 O         7.7227415184       -0.3937283797        3.2903029124
 C         9.2283453382       -0.0392228189       -0.1507299363
 C         9.9121528141        0.5439183842        2.3498205374
 H        -7.3248517411       -4.4903083036       -2.6865799641
 H        -7.7667582533       -4.0647124583       -4.2117190479
 H        -6.6800499025       -5.3354305788       -4.1437818294
 H        -6.6984910907        0.1571007213       -5.8030051613
 H        -7.7781405919       -1.0024879877       -5.1859779469
 H        -3.3296886367       -1.9316786298       -5.2964334661
 H        -3.6629548426       -3.6099880214       -5.3441962445
 H        -3.2504065255       -2.8113805948       -3.7422361064
 H        -6.8288549437       -3.2650660456       -6.2744087569
 H        -5.9593512846       -1.8218792511       -6.6549951164
 H        -5.0974783870       -3.3744401160       -6.6865741307
 H        -7.1188298106        1.1863538248       -3.3319194268
 H        -8.5077986722        1.1457714155       -4.3183358923
 H        -9.1042675337       -0.5733179545        0.8473821877
 H        -7.9375950893       -1.4940580044       -0.0947222385
 H        -9.4039164643        2.2345229798       -2.3090094208
 H       -10.8355413912        1.7201134582       -1.5720843530
 H       -10.6661758006        1.2547111822       -3.1998257367
 H       -11.0985561012       -0.9097409454       -2.1365954069
 H        -9.7671240911       -1.8552645882       -1.2837945606
 H       -10.8329119322       -0.7950778374       -0.3474333020
 H        -7.1263273792       -1.1232136449        2.1914141906
 H        -7.1071670134        0.5829962181        2.0077614058
 H        -2.5606289137        1.4288256146        1.8143482079
 H        -1.3757536143        0.3593141003        2.4347036913
 H        -4.6508416547        1.6473338343        2.5391512507
 H        -3.7332005861        0.8536267423        3.7914474836
 H        -5.5364502992        0.5241324655        3.6800547530
 H        -4.5835280272       -2.6221699550        2.2686903218
 H        -3.8431865333       -2.2569782347        3.6748634636
 H        -5.5929765262       -1.7790005184        3.5910918154
 H        -0.4985623701        1.5576321395        0.4272614232
 H        -0.3957243485       -0.2139901024        0.2191873028
 H         0.6728740193       -2.5883362514       -3.5353552839
 H         1.2687634637       -1.3693828963       -2.4154906660
 H        -1.4402564241        0.5167759140       -4.5130574840
 H        -2.6550762735        1.2117756136       -3.4237600316
 H        -2.6560098007       -0.5060261330       -3.7542837049
 H         0.6761063746        0.8810323682       -3.3382886648
 H        -0.1874539745        2.0556691300       -2.4656822972
 H         0.8721050401        0.8707757072       -1.6012121968
 H         1.9937898863       -3.6407347794       -1.6172861906
 H         0.2099032131       -3.9039567965       -1.1830788454
 H         2.6042150730       -2.0239873257        3.4111381496
 H         2.6423249867       -1.1303021771        1.8773070999
 H        -0.3896464691       -5.0101727664        0.8414967731
 H        -1.3122244827       -3.5599792136        1.1760600502
 H        -0.6777631111       -4.4492124155        2.5241219033
 H         2.8624936383       -3.7736164070        1.6359384216
 H         1.8429677046       -4.8380223582        2.5028130309
 H         2.0188974637       -5.0213105066        0.7474667100
 H         1.1554576939        0.4983294239        2.9316956477
 H         1.6135360418       -0.1087369232        4.4841692317
 H         3.3529191177        4.9150000771        2.3415020616
 H         4.5774200940        3.5440580057        2.3330849238
 H         1.3165995899        1.7815417388        5.1650085219
 H         2.2597571355        2.7827663241        6.2967862500
 H         2.6534176611        0.9117910511        5.9792958282
 H         5.4266422676        2.2317106454        3.9886743643
 H         4.8574144975        3.2337678934        5.3444735823
 H         4.9652327391        1.4764187585        5.4523694227
 H         1.8948024340        3.9045402375        0.6616729933
 H         3.2764091689        2.8087547510        0.1542971133
 H         7.3385128281        3.9222676486       -0.4829696189
 H         6.1007511638        4.0729089581        0.8298809424
 H         2.6255403162        5.0769799638       -2.8607538708
 H         2.9065020879        3.5508323823       -2.1471552604
 H         4.0183909972        4.0977606643       -3.2983632396
 H         5.5264342518        6.1667217902       -2.7065934853
 H         4.7265371984        6.9504710995       -1.3598052744
 H         6.1395240301        5.7701380061       -1.0420565898
 H         5.8573094753        1.5381890114        0.6869363661
 H         7.0005564359        1.4691115239       -0.6813198084
 H         7.0223060687       -1.5758049415        0.3439108196
 H         7.6056243388       -2.5615588084        1.6871315361
 H         6.0503013203       -1.9070319943        1.7786275632
 H         8.3440424553       -0.2826440825       -0.7404065777
 H         9.8222413165       -0.8927029908       -0.1843915970
 H         9.8031749339        0.8337436687       -0.5132717357
 H        10.1491995184       -0.4491223552        2.7962707072
 H        10.8839446377        0.8383242595        1.9327928520
 H         9.6261759728        1.2387775517        3.1112638111
 Na       -3.9991408339       -1.5255100807       -1.4160137403
