155

 C        -6.9411089566       -4.8273097162       -3.2627472898
 C        -5.8456230890       -3.7588295891       -3.3416840195
 C        -5.8107661830       -2.8295471618       -4.5929729246
 C        -6.1746709182       -1.2707921712       -4.2943266255
 C        -7.2502990647       -0.4917434722       -4.9660374125
 C        -4.2842543416       -2.8332663728       -5.1237780222
 C        -6.7715067973       -3.2999007521       -5.7299650330
 O        -4.9197834196       -3.7312726241       -2.5479852765
 O        -5.5375060240       -0.5782624658       -3.5550119783
 C        -8.0491548398        0.3644690539       -3.9750300908
 C        -8.7045044741       -0.5639673467       -3.0138952850
 C        -9.4888127063        0.0284114103       -1.8653648324
 C        -8.4940527014       -0.0320518347       -0.5283068980
 C        -8.2303455706       -1.3081694302        0.2428381138
 O        -8.4636292940       -1.7683780047       -3.0807127242
 O        -7.7524431890        0.9125827002       -0.2969356601
 C       -10.0135345203        1.4290678932       -2.0633325342
 C       -10.6940794222       -0.8746146682       -1.5350422395
 C        -7.1837522481       -1.1616894177        1.3765788748
 C        -5.7328336816       -1.1491467644        0.7897518786
 C        -4.5672486566       -0.7644028020        1.6507061383
 C        -3.2920411699       -0.3712421798        0.7519981414
 C        -3.1020192386        1.2643225712        0.6103414165
 C        -4.9433309980        0.2219420377        2.7821091503
 C        -4.2112472603       -2.1124298982        2.2770152880
 O        -5.6188429903       -1.5014955397       -0.3799261411
 O        -2.6189424857       -1.1261152655        0.1414232063
 C        -1.9521719899        1.6874870517       -0.2183665375
 C        -2.0368548650        0.9355407280       -1.4921883947
 C        -0.6631307503        0.6866202365       -2.2313494326
 C        -0.3689577105       -0.8462980677       -2.2457139746
 C         1.0494978562       -1.4054881722       -2.1774545648
 O        -3.1491925271        0.6396443506       -1.8969347916
 O        -1.2922269204       -1.6624800979       -2.2358262278
 C        -0.8341392717        0.9783454901       -3.7902181357
 C         0.4935775939        1.5773648751       -1.7380721348
 C         0.9175532179       -2.6937034484       -1.2745678668
 C         0.5358001836       -2.3307669272        0.1270871580
 C         0.4734985628       -3.5903275134        1.1301933282
 C         0.7697157926       -2.9531605977        2.5772799714
 C         2.1022023211       -2.0756439467        2.7077247180
 C        -0.9234234356       -4.2385718722        1.1042236088
 C         1.5934751281       -4.5837733840        0.8811852501
 O         0.3172316105       -1.1763761115        0.5091946894
 O         0.0715931697       -3.1106789548        3.5634390829
 C         1.7490556693       -0.6632871755        3.1553230526
 C         3.0390345022        0.1572967541        3.4990900602
 C         2.7936601794        1.7277021638        3.6549669483
 C         2.5885647354        2.2415122311        2.2157686041
 C         3.3969211051        3.4335158790        1.8574137127
 O         4.1371279094       -0.2798540240        3.6295826993
 O         1.7708093127        1.7572479074        1.4173849802
 C         1.4485211557        2.0180262344        4.4421322739
 C         3.9338543491        2.2378738037        4.5812684590
 C         2.9287086314        4.1401383349        0.5349296176
 C         4.0692042411        5.1941258706        0.2332262843
 C         5.0630316689        5.0270447232       -0.9972559187
 C         5.8748536042        3.7030768101       -0.7551570559
 C         7.3254268605        3.6873272876       -0.2339042790
 C         4.2206196932        4.8825874544       -2.3086935385
 C         5.9571247083        6.3111869243       -1.0286570637
 O         4.2182511581        6.0483312643        1.0410156489
 O         5.3395635349        2.6125703816       -0.8599488483
 C         7.9651304087        2.3504341780        0.2364520181
 C         8.3614198979        2.5516729920        1.7813437574
 C         9.0383676720        1.4623670144        2.5486894373
 C         7.8444461698        0.4992100529        2.9254482706
 C         7.5749922121       -0.6419026042        1.8068288372
 O         7.9969576425        3.6175177763        2.3241251144
 O         7.1846219157        0.4990175803        3.9310145131
 C        10.0340167760        0.8030095810        1.7130100078
 C         9.5533445635        1.9696171707        3.9874451865
 H        -6.8339077071       -5.6332007644       -2.4553889093
 H        -7.9389934427       -4.2522977562       -3.2272914996
 H        -6.9518154177       -5.4941058311       -4.1657879213
 H        -6.6894841948        0.1962647132       -5.6551314308
 H        -7.9679583893       -1.0325178005       -5.5674106663
 H        -4.2408493046       -2.2551226283       -6.0097099653
 H        -3.8312816436       -3.8511485071       -5.2818312740
 H        -3.7054303188       -2.2644418932       -4.4698229696
 H        -7.7664324993       -3.5278347278       -5.3771329246
 H        -6.7110845257       -2.7145371938       -6.6908126123
 H        -6.5286833396       -4.3974731558       -5.9306543356
 H        -7.2072656421        0.9342686035       -3.3786069500
 H        -8.7394803188        1.0387790236       -4.4132340414
 H        -9.1677552780       -1.5609779935        0.7697151739
 H        -8.0983818233       -2.1889723178       -0.4599001255
 H        -9.0954825591        2.1353530779       -2.0342356411
 H       -10.7065119785        1.7464342834       -1.1928998011
 H       -10.5653721557        1.5863893770       -2.9641536138
 H       -11.4786454565       -0.9811786371       -2.2842032409
 H       -10.4700150508       -1.7920253614       -1.0872924517
 H       -11.1551918980       -0.3771490873       -0.7411024020
 H        -7.1238254241       -2.0271450917        2.0633222789
 H        -7.6806322622       -0.3782798100        2.0020765432
 H        -4.0687091762        1.5549199616        0.0979230029
 H        -3.0801184314        1.7726273533        1.6034768489
 H        -5.1426484443        1.2177489458        2.4650568886
 H        -4.1650180170        0.2958934457        3.5805475115
 H        -5.7548121535       -0.0762704959        3.3880276946
 H        -3.6748061866       -2.8772103332        1.7100947926
 H        -3.7794913805       -1.8064050788        3.1781184908
 H        -5.0556724982       -2.7631771340        2.4599035233
 H        -2.0174078090        2.6976036457       -0.5855806048
 H        -1.0415240711        1.5787803715        0.3193189587
 H         1.2857428507       -1.7082153866       -3.2061857659
 H         1.8199327618       -0.6323963195       -1.8555411976
 H        -0.0386967757        0.4836475748       -4.1918085577
 H        -0.7662901687        2.0879718979       -3.9618315524
 H        -1.7388458884        0.5484184410       -4.0985569782
 H         1.2979618758        1.4524084779       -2.4302391201
 H         0.2027621945        2.5863351572       -1.6789641240
 H         0.7762010222        1.2355104183       -0.7082648582
 H         1.8935937551       -3.2172460751       -1.1774637273
 H         0.3482435163       -3.4724650420       -1.7686920364
 H         2.8621013961       -2.6121831201        3.3905553702
 H         2.6325669448       -1.9318280662        1.7097432925
 H        -1.0308110437       -4.7914305450        0.0877923044
 H        -1.7341948761       -3.5251840889        1.1328444159
 H        -1.0810394431       -4.8616775208        1.9641519058
 H         2.4787381619       -3.9381536221        0.7788118864
 H         1.7720323061       -5.2827687952        1.7154169509
 H         1.4880294148       -5.0965159271       -0.0318490053
 H         1.2776934660       -0.1653919328        2.2747375463
 H         1.0051955216       -0.5717772586        3.9534286512
 H         3.3601103361        4.1368555700        2.6464338099
 H         4.4657901648        3.0948306823        1.8270831269
 H         0.5738034510        1.7547266681        3.7340179367
 H         1.5196476975        3.0416934127        4.7815667868
 H         1.3299447732        1.5385990792        5.4102128162
 H         4.7479427146        2.6421944878        3.9555311623
 H         3.6034388752        3.0953437208        5.2087187691
 H         4.2793480790        1.4493463375        5.2329729976
 H         2.0377106389        4.7434358194        0.7059525833
 H         2.5925027729        3.4371472587       -0.2506430883
 H         7.7646130499        4.3575808951       -0.9386037308
 H         7.4361428699        4.2256898010        0.7200930903
 H         3.6961098656        5.8053820152       -2.4833930490
 H         3.4062267600        4.0598162868       -2.1397930299
 H         4.7873659783        4.6025252493       -3.1862741027
 H         6.1228528241        6.6925423085       -0.0892493196
 H         7.0320869337        6.0639239073       -1.1947730600
 H         5.6065060203        7.0772541308       -1.7284305058
 H         7.1176241378        1.6075322590        0.2982637346
 H         8.7110672473        1.9174650070       -0.3780882373
 H         7.2557670450       -0.3213629468        0.8087925265
 H         8.5152147191       -1.1761785568        1.6831033959
 H         6.8256176226       -1.3995505826        2.0717222474
 H         9.6136626072        0.3427931008        0.7729805530
 H        10.4515336566        0.0018880909        2.3801412549
 H        10.7883082745        1.4844620728        1.3755230041
 H         9.0094684613        2.8422305719        4.2605456886
 H         9.3527973296        1.1849560638        4.7392150914
 H        10.6600116008        2.2094774157        3.9594608938
 Na       -3.8284546910       -1.6174984920       -2.0061538656
