155

 C        -6.3805413564       -4.8653950426       -3.2038919153
 C        -5.4320161977       -3.6240731561       -3.4810958028
 C        -5.4841586054       -3.0511461363       -4.9844044423
 C        -6.3380023298       -1.7719352388       -4.6997122510
 C        -7.7783750038       -1.7563387946       -5.3683744272
 C        -4.0307376802       -2.5669470382       -5.3711756921
 C        -5.9990834919       -4.0885654790       -6.0933721369
 O        -4.7412728957       -3.1369424229       -2.6301270624
 O        -5.8509386097       -0.8477397067       -4.0811164501
 C        -8.6852887758       -0.7650646939       -4.5380622116
 C        -8.9983352471       -1.4150998046       -3.1680472335
 C        -9.8752198740       -0.5903212782       -2.1771268867
 C        -8.9335053892       -0.2957306334       -0.9771173131
 C        -8.4818405961       -1.4572238613       -0.0431460445
 O        -8.5812147474       -2.5130018160       -2.8488099998
 O        -8.4444932864        0.8516539745       -0.9341105312
 C       -10.4834074167        0.7046912165       -2.8153956635
 C       -10.9994919654       -1.5865679513       -1.9189516236
 C        -7.3362665072       -0.9863235500        0.8658562023
 C        -5.9408357264       -1.0027643729        0.3885130541
 C        -4.7528320435       -1.0335797938        1.4881763208
 C        -3.4870357026       -0.5821664700        0.7431169010
 C        -2.9161671217        0.7924727200        1.1355849696
 C        -5.0383527796       -0.2755743158        2.8087080630
 C        -4.4832307958       -2.5596673601        1.8063324065
 O        -5.5834119466       -1.0181012116       -0.7907501859
 O        -2.9154729171       -1.3897102777        0.0552673036
 C        -1.8379099472        1.3420281162        0.2237694201
 C        -2.2902608646        1.2327315965       -1.2984522896
 C        -1.2675944652        1.0609845768       -2.4920478140
 C        -0.9005260474       -0.4284566016       -2.6369335622
 C         0.4795330183       -0.8061155814       -2.4063672517
 O        -3.4481621853        1.0675817458       -1.5341059242
 O        -1.7139090057       -1.2220051224       -2.9724197212
 C        -2.0526585819        1.5335155226       -3.7627193424
 C        -0.0082580842        1.9446679128       -2.4041539277
 C         0.6234909843       -2.2811818109       -1.8146897644
 C         0.2967176176       -2.3583634101       -0.3716583624
 C         0.3254963969       -3.8010511874        0.3071428226
 C         0.5465696845       -3.3089253482        1.9222376648
 C         1.9085140494       -2.6699369836        2.2025810713
 C        -1.0851878376       -4.3366075618        0.2282349563
 C         1.4439330565       -4.7260292573       -0.2970785903
 O        -0.1644306528       -1.3954757776        0.2245961932
 O        -0.3857175356       -3.4415965669        2.6740376700
 C         1.6160748983       -1.3318228955        2.8342875475
 C         3.0577834342       -0.6963995122        3.0856547805
 C         3.2387377101        0.9136381878        2.8362160910
 C         3.0280780721        1.1923650751        1.3436819875
 C         4.0057748494        2.0039566137        0.5531589381
 O         4.0662100585       -1.2726257342        3.3414223938
 O         1.9989078906        0.8797212584        0.8162519363
 C         2.2331264614        1.7181922971        3.6483009579
 C         4.6469140164        1.2597742978        3.3706857476
 C         3.6242989118        3.4932158632        0.6708997566
 C         4.7429403608        4.5359652357        0.7656477847
 C         5.8926031277        4.5666131150       -0.2927239114
 C         7.2990146224        4.6858032214        0.3091584358
 C         7.5664037649        5.6960552281        1.5102497294
 C         5.9217693309        3.5470995329       -1.4231619475
 C         5.6754702649        5.9753374835       -0.9905230468
 O         4.6230333627        5.5059472973        1.5417174519
 O         8.2296188300        4.0431891561       -0.1206840373
 C         8.5734349702        4.9370982280        2.3719522756
 C         7.8063938969        3.8157544583        3.2018094189
 C         8.6923572866        2.8750424312        4.0987715861
 C         7.8437439582        2.0805005654        5.1049203823
 C         6.6928174504        2.9174174623        5.8855151983
 O         6.6395833961        3.5504661184        3.0121088887
 O         8.0903034583        0.8954403832        5.2457662924
 C         9.5466142505        1.9446538256        3.2339046371
 C         9.6334274523        3.7233216676        5.0581404497
 H        -7.0175541614       -4.6868768634       -2.3762819082
 H        -6.9792751777       -4.9921226337       -4.0982030336
 H        -5.9475644353       -5.7499107770       -2.9390464804
 H        -7.6225151068       -1.2826051154       -6.3636947701
 H        -8.0939522306       -2.7566090197       -5.3402683801
 H        -4.1536237293       -1.9326549171       -6.2561928030
 H        -3.3270316713       -3.3563001246       -5.7230340438
 H        -3.6116125787       -1.9425046150       -4.6367476803
 H        -7.0216752182       -4.1096630038       -6.5037668154
 H        -5.3262173085       -4.0608540111       -6.9149540417
 H        -5.7645724428       -5.0459282463       -5.7450283837
 H        -8.2614181245        0.2517616016       -4.4030593289
 H        -9.6004030924       -0.6818828002       -5.1050144943
 H        -9.2119368296       -1.8317254136        0.5615163288
 H        -8.1194517313       -2.1754370828       -0.7761548615
 H        -9.6457122143        1.2536650780       -3.0519078623
 H       -11.1062824286        1.2497975565       -2.1859972864
 H       -11.0492744303        0.4641461154       -3.7593965259
 H       -11.4034641797       -2.0457251632       -2.8209053862
 H       -10.7441853867       -2.4071686432       -1.2361662613
 H       -11.7441481339       -0.9966467071       -1.2823899061
 H        -7.4077708481       -1.4100615177        1.8269771388
 H        -7.6611261178        0.0495910820        1.1152567475
 H        -3.7070378916        1.5069097674        1.2708686760
 H        -2.5341540661        0.6384139225        2.1104090643
 H        -5.7114004091        0.5059477245        2.4279995614
 H        -4.1327162817        0.1626719957        3.1126471272
 H        -5.4106057064       -0.9835174712        3.4783724136
 H        -4.1485157897       -2.9233143809        0.7854812571
 H        -3.6958534682       -2.5698311263        2.5112977289
 H        -5.2980180993       -3.2187276361        2.1146752180
 H        -1.4111776950        2.2866315241        0.6003365229
 H        -0.9558891155        0.6310848881        0.4094844024
 H         0.8899898792       -0.7609342326       -3.3924582978
 H         1.0929967444       -0.1407130088       -1.7853545874
 H        -1.4653440612        1.3894129152       -4.7276392689
 H        -2.3380648731        2.5716004318       -3.6708942010
 H        -2.9296892810        0.8474530631       -3.9107250677
 H         0.7501448520        1.6604571035       -3.1552165080
 H        -0.0487955378        3.0104605180       -2.4225836546
 H         0.4695376196        1.7151994436       -1.5104002163
 H         1.7142708914       -2.5149625679       -2.0340324971
 H        -0.1123011424       -2.9868975423       -2.1540537446
 H         2.4824243151       -3.2700556699        2.8969619383
 H         2.4143555905       -2.5978975533        1.2493256779
 H        -1.5079557588       -4.3484842270       -0.7339689229
 H        -1.6575620997       -3.7702601955        1.0516167760
 H        -1.0581695370       -5.3542547371        0.5814455068
 H         2.4495502966       -4.4689053703        0.1877585639
 H         1.3242371821       -5.7522742105       -0.0688309282
 H         1.5698907480       -4.5855733966       -1.3182612851
 H         0.9418733887       -0.6619023512        2.2367104314
 H         1.0810133033       -1.5490539684        3.8128623570
 H         5.0332490348        1.8040165744        0.7486925461
 H         3.8866631845        1.7368650349       -0.5327485185
 H         1.2672804540        1.4221984739        3.3424218864
 H         2.3857271597        2.7731018133        3.4912266283
 H         2.3326448781        1.5970982407        4.6826453859
 H         5.4485015238        0.5813011766        2.9583732896
 H         4.9295937470        2.3195143598        3.3522178332
 H         4.6987335987        0.9096635502        4.4105554152
 H         2.9667511783        3.6112475679        1.4771853048
 H         2.9693711465        3.8045773924       -0.1558948327
 H         8.0576633843        6.7040597029        1.3833949931
 H         6.6980584407        5.8926980918        2.1559422807
 H         5.0351525357        3.8621525852       -2.0805324579
 H         5.8526986675        2.5357400693       -1.1990050902
 H         6.7200301504        3.7416271408       -2.2184214992
 H         5.9090013726        6.9237673678       -0.3745651115
 H         6.3836600907        6.0768585852       -1.7658352673
 H         4.7673562414        6.3418883059       -1.5190586639
 H         9.2682265143        4.4975903282        1.6999532030
 H         9.1422777762        5.6468029541        3.0575001316
 H         5.6961136825        2.5015198427        5.9780652557
 H         7.1165632393        3.1135918958        6.8988065636
 H         6.6658658768        3.8983531921        5.3661312277
 H         9.8776067626        2.3804409384        2.3206361084
 H         8.9118639117        1.2087115243        2.8863309405
 H        10.4057731447        1.3980729547        3.7198999519
 H        10.0918257652        4.5830190265        4.5516490806
 H         9.0493259189        4.0383586623        5.8928993960
 H        10.5914372201        3.1835086029        5.2598582164
 Na       -3.7406971613       -1.1453706257       -2.4247043503
