155

 C        -6.5047335619       -4.9217491127       -3.3255912418
 C        -5.4952742334       -3.8296624317       -3.5259734818
 C        -5.3177203381       -2.9978719936       -5.0883650228
 C        -6.2665362960       -1.7570895853       -4.8694835587
 C        -7.6593151449       -1.7396460424       -5.5380079502
 C        -3.8629929728       -2.5530134944       -5.2466699836
 C        -5.8281212341       -3.9264051322       -6.2386480790
 O        -4.7911040360       -3.3797104212       -2.6389418110
 O        -5.8371935051       -0.8553476762       -4.1738502366
 C        -8.6442055727       -0.8976798754       -4.7365479615
 C        -8.8991036147       -1.5393216059       -3.3248854252
 C        -9.7893615305       -0.7355800571       -2.2346160860
 C        -8.8512044734       -0.2097089876       -1.0122177602
 C        -8.4430997241       -1.3114684019        0.0155190519
 O        -8.4154645627       -2.6252007785       -3.0454143150
 O        -8.5400259196        0.9346481089       -1.0972400299
 C       -10.4468260116        0.4552060746       -2.9054166960
 C       -10.9725952081       -1.6739880002       -1.7074668648
 C        -7.3826600217       -0.8349106906        1.0356593606
 C        -5.8916716246       -0.9630508162        0.5637187367
 C        -4.6780589306       -1.1392329242        1.6235883305
 C        -3.3569043533       -0.5563440613        0.8660180167
 C        -2.8098804003        0.8218692845        1.1855059337
 C        -5.0242750482       -0.3247653660        2.9981870363
 C        -4.7327818637       -2.6272646621        1.8898269151
 O        -5.7710633187       -1.0095691883       -0.6269662928
 O        -2.9630606977       -1.1648754976       -0.1387556771
 C        -1.7779182861        1.2277179646        0.0694228286
 C        -2.4161451151        1.1449825286       -1.2958074927
 C        -1.3789080990        1.0014197428       -2.5406344303
 C        -0.8566187400       -0.4451159610       -2.6804483256
 C         0.6150613378       -0.8331614700       -2.6466152462
 O        -3.6371274371        1.1528452760       -1.5049781104
 O        -1.6871239706       -1.3900414356       -2.7259177544
 C        -2.0912936482        1.3142184025       -3.8761264058
 C        -0.3459558419        2.0651680155       -2.2312316201
 C         0.6764914619       -2.2651223528       -2.0993968127
 C         0.2254642511       -2.2784111856       -0.6382192352
 C         0.1582844649       -3.5734326380        0.1921882867
 C         0.4551419111       -3.2395955166        1.7266494336
 C         1.8666600080       -2.6537540946        1.9427528734
 C        -1.2573584622       -4.2709446354        0.1081804421
 C         1.2558377765       -4.5614445976       -0.2553832259
 O         0.0650654512       -1.2141993186       -0.0875909467
 O        -0.1799439723       -3.5516992155        2.7294836250
 C         1.7682798581       -1.3591219316        2.7409208220
 C         3.1344210451       -0.8260241070        3.0738700513
 C         3.3731837104        0.7226650709        2.7901834318
 C         3.0881247418        1.1511280786        1.3358738780
 C         4.0644205920        2.0445364169        0.5504937747
 O         4.0500831903       -1.5610554548        3.4529622674
 O         2.1737157275        0.6371543272        0.6814652166
 C         2.2582528827        1.4216402431        3.6408566379
 C         4.7465762939        1.1249295020        3.3694714094
 C         3.6299991575        3.5418717024        0.4898722620
 C         4.7179496765        4.6111155334        0.6691601353
 C         5.8869648348        4.7662706480       -0.3879534338
 C         7.3300211282        4.8141491987        0.5103333033
 C         7.5105672038        5.7492584788        1.5987746743
 C         6.0178903944        3.4931041152       -1.3285237051
 C         5.7269588041        6.1073977406       -1.1466627078
 O         4.5819937311        5.3961586903        1.5492501210
 O         8.2028439940        4.1136530123        0.0192954956
 C         8.4101698749        5.2192243688        2.8330753132
 C         7.9054292447        3.8400386012        3.3217911007
 C         8.7518538157        3.0307858096        4.3211927261
 C         7.7834074964        2.2658480171        5.4220274568
 C         6.5316677387        3.0523351451        5.8610320545
 O         6.7552664754        3.5034241512        2.9813523787
 O         8.1537387252        1.3069733131        6.0038295628
 C         9.5925953936        1.7830139516        3.4240996897
 C         9.8273573792        3.9162318224        5.0385855320
 H        -7.0681810510       -4.8217844773       -2.3909010450
 H        -7.1866291974       -5.0693777438       -4.1256522897
 H        -5.8879822145       -5.8387614041       -3.0823864538
 H        -7.6107962123       -1.2794783521       -6.5023776451
 H        -7.8691366008       -2.8358437823       -5.4306531141
 H        -3.6580755719       -1.4983779574       -5.4307756735
 H        -3.3961527383       -3.0992508836       -6.0637692992
 H        -3.2999212040       -2.8885395493       -4.3271020263
 H        -6.4247670705       -4.6794141025       -5.8164017738
 H        -6.4390469944       -3.4044998686       -6.9815652833
 H        -5.1533824231       -4.3792013455       -7.0129081115
 H        -8.2418585572        0.0828199626       -4.4988700961
 H        -9.5260913171       -0.7769850405       -5.4166256635
 H        -9.4087748725       -1.4389423094        0.6632019936
 H        -8.1398843243       -2.2835741140       -0.4209965891
 H        -9.7428182045        1.2521100747       -3.2527021606
 H       -11.0555923005        0.9049106220       -2.0734154011
 H       -11.1004608387        0.1602541567       -3.6323441419
 H       -10.9029734356       -2.6659534354       -2.2424841049
 H       -10.8955062506       -2.0205253599       -0.6615119958
 H       -11.8960626238       -1.1763146030       -1.7252839408
 H        -7.6101158113       -1.4232214243        1.9754921543
 H        -7.5881359566        0.1580336560        1.4322195345
 H        -3.7052879268        1.4615444101        1.2682281057
 H        -2.3208582000        0.7441987371        2.2076695692
 H        -5.7714907026        0.4284074184        2.8632548025
 H        -3.9919014495        0.0312688853        3.2204330631
 H        -5.1518640212       -1.1600265867        3.6964220168
 H        -4.3435346965       -3.1983108800        1.0698870839
 H        -4.2354569235       -2.8616281163        2.8585705573
 H        -5.7788460042       -2.8474037867        2.1645444748
 H        -1.2939233753        2.2038749009        0.1308038666
 H        -0.9443860404        0.5831922819        0.2031995257
 H         0.9673098298       -0.9031354883       -3.7231789574
 H         1.3108788308       -0.1687541888       -2.1236443090
 H        -1.4451829301        1.2114587341       -4.7268764333
 H        -2.4951093570        2.3954249806       -3.9714765263
 H        -2.8532311490        0.5627974947       -3.9961081420
 H         0.3902394271        2.2445623377       -2.9441271588
 H        -0.8584436484        2.9918008588       -2.0542850340
 H         0.2542687528        1.9230789207       -1.2872572421
 H         1.7074378538       -2.5383082756       -2.1799041361
 H         0.0077133966       -2.9633855412       -2.6907098076
 H         2.3818267881       -3.4508662094        2.4944844977
 H         2.4302906812       -2.5265606145        1.0264093179
 H        -1.0830616416       -5.1642146217       -0.6365157901
 H        -2.0037513894       -3.6457471083       -0.2308336065
 H        -1.5068038027       -4.7985480641        1.0388609890
 H         2.2119572087       -4.2394505087       -0.4518545831
 H         1.2995126180       -5.2948175219        0.5758496854
 H         0.8873882674       -5.0427767692       -1.2079766599
 H         1.2758066879       -0.6502593165        2.1414218374
 H         1.2271043921       -1.4857015508        3.6194612915
 H         5.1131247843        1.8709619154        0.9190508663
 H         4.1241168507        1.7477308518       -0.4732201215
 H         1.2434090179        1.1042616688        3.2831597164
 H         2.4433114313        2.5104552900        3.9106856797
 H         2.3976493025        1.0551298152        4.7340015964
 H         5.4954454954        0.3804442344        3.2174579914
 H         5.0306164447        2.1410064566        3.0659653709
 H         4.6973289596        1.1606591255        4.4640304848
 H         2.7764198549        3.7531559862        1.2210500202
 H         3.2024469713        3.7127124016       -0.5139356385
 H         8.0190169416        6.6323521799        1.3046022476
 H         6.5553380325        6.0693066686        1.9912578246
 H         5.1724539173        3.0330384995       -1.7802350019
 H         6.6095305992        2.6700485091       -0.8034451438
 H         6.5800456763        3.8421665890       -2.1312378593
 H         5.7651720519        7.0298658310       -0.7180548019
 H         6.3134189141        6.2493931836       -2.0644083889
 H         4.7715364018        6.0926623860       -1.5899021893
 H         9.5015887286        5.1594792448        2.5923322478
 H         8.3140208186        5.9349341015        3.5976534276
 H         5.7531490062        2.6581825501        5.2006993852
 H         6.2780127259        2.8333372452        6.8689994297
 H         6.6242549638        4.0903289823        5.6525820918
 H        10.6709089231        2.0854101287        3.2410040253
 H         9.2523779728        1.5119015818        2.3925455013
 H         9.6761682824        0.9295551397        3.9659086755
 H        10.8473261910        3.7408927931        4.7573276898
 H         9.4452765962        4.9230628642        4.8249713087
 H         9.8748925938        3.8175742136        6.0913997388
 Na       -4.2644458332       -1.0748838318       -2.3881606222
