155

 C        -5.7447209072       -5.5114590146       -4.1565260250
 C        -5.3370138772       -4.0951025518       -3.9119989433
 C        -5.3016798145       -3.1239306073       -5.1465912308
 C        -5.8111333096       -1.7159083151       -4.8249669122
 C        -7.1504852096       -1.2033959372       -5.3836827761
 C        -3.7129222697       -3.0695221235       -5.4852521917
 C        -6.0310820245       -3.7563656744       -6.4301361931
 O        -4.8970059930       -3.7781655800       -2.7937352368
 O        -5.2218909796       -0.9765658062       -4.0135796918
 C        -7.9193787575       -0.5463826786       -4.2529233109
 C        -8.6806007545       -1.5770679698       -3.3869223605
 C        -9.8885278360       -1.1351982586       -2.3664356220
 C        -9.2734841071       -0.3378752032       -1.1560642872
 C        -8.9262145583       -1.1271472779        0.1833884307
 O        -8.4832341892       -2.7028377655       -3.6567698328
 O        -8.9912366085        0.8749391867       -1.2409320559
 C       -10.8723612422       -0.2238965722       -3.1262359923
 C       -10.5398159757       -2.4291443257       -2.0054292451
 C        -7.8785515273       -0.3767329612        1.0791569238
 C        -6.4816527620       -0.8987709436        0.6854604856
 C        -5.3068670068       -0.8861165265        1.6627139232
 C        -3.9879153840       -0.6141560221        0.8630904769
 C        -3.3257320067        0.7781426325        0.9641220230
 C        -5.4564296975        0.0879686321        2.8266672303
 C        -5.2088161580       -2.2722163969        2.3240292626
 O        -6.3331248084       -1.2524206783       -0.4736026083
 O        -3.4069658957       -1.5262372568        0.2776428827
 C        -2.2122852283        0.8716457283       -0.1775510028
 C        -2.8210737133        0.9212972521       -1.5343516636
 C        -1.7716420300        0.9226624283       -2.7914105801
 C        -1.3251895859       -0.6146327095       -2.9982253077
 C         0.1277730589       -0.9191470635       -3.4392179589
 O        -4.0144427694        0.8530179391       -1.6442977581
 O        -2.1265785494       -1.4752273441       -2.8931355092
 C        -2.4536183778        1.2922107003       -4.1242590122
 C        -0.6400857728        1.8725242419       -2.4105694629
 C         0.4475487736       -2.3211751357       -2.8781818043
 C         0.1102148964       -2.4042232550       -1.3833182367
 C         0.0085398887       -3.7837784334       -0.6112911002
 C         0.3972686061       -3.3969779332        0.9896914050
 C         1.7938435453       -3.1330270996        1.4982631125
 C        -1.3303076242       -4.4785947134       -0.6534058047
 C         1.0655289416       -4.6726453296       -1.2993083045
 O         0.0345748428       -1.3617397958       -0.7346096879
 O        -0.5339027101       -3.3988467537        1.7421005788
 C         2.0128089499       -1.6523721690        1.9777717386
 C         3.3522740233       -1.3263241173        2.4944788252
 C         3.6906496537        0.1457959128        2.8503294609
 C         3.9052628058        0.9110745992        1.4621201391
 C         4.2073507614        2.4147219479        1.6668986707
 O         4.2421409315       -2.1577425511        2.4768343150
 O         3.9614441620        0.3352837898        0.3957286847
 C         2.5004987624        0.6296528038        3.7840424213
 C         5.0453361139        0.1260771318        3.6899109819
 C         5.2238064833        2.9908207391        0.5643369541
 C         5.0784905031        4.4730749952        0.2783211437
 C         6.3285221032        5.2454902372       -0.1789383756
 C         7.5011662272        4.9476757759        0.8566388829
 C         7.2430094905        5.6959893484        2.1488381059
 C         6.8263813978        4.6959033784       -1.5540189295
 C         6.0766423668        6.8205200200       -0.2548739727
 O         3.9606846123        4.9875798342        0.3588754384
 O         8.4827630195        4.2376359965        0.6380503752
 C         8.0963925269        5.2902451634        3.3270762084
 C         7.7047817354        4.0102000775        4.1902021488
 C         8.7066802818        3.6923454283        5.4945799478
 C         8.0530212121        4.2190091813        6.8957419991
 C         7.2563640471        5.5436711667        6.9054667744
 O         6.8642409655        3.1915783940        3.8622816457
 O         8.1648283900        3.5517745276        7.9247833171
 C         9.1330667506        2.1947944520        5.5176974620
 C         9.9416695987        4.5113603180        5.3661487683
 H        -5.4475883100       -6.0690036194       -3.2360340845
 H        -6.8246609001       -5.6476249314       -4.1865430277
 H        -5.2634082243       -5.9093201495       -5.1092329525
 H        -6.8491705402       -0.4591926520       -6.1380077549
 H        -7.6244225476       -1.9139072008       -6.0052130780
 H        -3.1101762223       -2.7916035548       -4.6261714658
 H        -3.6061646737       -2.3042370927       -6.2970663734
 H        -3.3941042600       -4.0410487145       -5.7257989468
 H        -5.3975595170       -4.6280452211       -6.7490930396
 H        -6.9922599031       -4.2398696896       -6.2004889066
 H        -6.1139346194       -2.9882721265       -7.1982218768
 H        -7.2612725449       -0.1417709043       -3.5364747717
 H        -8.5296194699        0.3567037037       -4.4905420055
 H        -9.7640688166       -1.4249636490        0.7804770244
 H        -8.4985572428       -1.9949752391       -0.2689167716
 H       -10.6037713672        0.8345453111       -3.2895544665
 H       -11.8633145123       -0.2462705016       -2.6541469712
 H       -11.0730788311       -0.6764206543       -4.1929111455
 H       -10.9639112152       -2.2643818342       -1.0727557923
 H       -11.1791372928       -2.7349805727       -2.8091717893
 H        -9.8079037647       -3.2684352340       -1.8811479609
 H        -8.0796287288       -0.6474762464        2.1551693544
 H        -8.0072890758        0.6686002790        0.9507193402
 H        -3.9562302699        1.6284348257        0.8068779367
 H        -2.9079045467        0.8424401272        1.9981315771
 H        -5.5903109263        1.1448879536        2.5457114556
 H        -4.5358818229        0.0770158546        3.4282417556
 H        -6.2581317177       -0.2296320681        3.4206871924
 H        -4.9960910458       -2.9531238217        1.4476156631
 H        -4.4652810312       -2.2070783181        3.0690702933
 H        -6.1708534879       -2.6356170999        2.7058032068
 H        -1.6617148910        1.7890993059        0.0851659276
 H        -1.4819389317        0.0149135479       -0.2237283497
 H         0.2325971022       -0.7485367891       -4.4871238919
 H         0.7234424756       -0.1820391674       -2.8948023105
 H        -1.7824987540        1.0594750783       -4.9360340104
 H        -2.7246589484        2.2659165850       -4.1923340211
 H        -3.3283432776        0.7174826442       -4.3551370618
 H         0.0090958451        2.2238350037       -3.3074402711
 H        -1.1276755292        2.7752977537       -1.9522022319
 H         0.0203548120        1.4194571899       -1.6733172829
 H         1.5069292334       -2.6387761707       -3.0090174100
 H        -0.0925738682       -3.1447622997       -3.3772097680
 H         1.8458363715       -3.8069510595        2.3917510209
 H         2.4980164761       -3.4405051822        0.6928164613
 H        -1.2171805344       -5.4908318901       -0.6126906676
 H        -1.9096989273       -4.1981978442       -1.6295007770
 H        -1.9706656964       -4.1038420596        0.1408776213
 H         2.0969005919       -4.1484473975       -1.3411908586
 H         1.2438154657       -5.6189617539       -0.7739962282
 H         0.7723787638       -4.8891830948       -2.3005165087
 H         1.8140384769       -0.9598226121        1.0775665788
 H         1.1873379660       -1.2971024549        2.7072371911
 H         3.2788247242        2.9692066094        1.4576430298
 H         4.5554984217        2.6155379815        2.7122132755
 H         1.5506922963        0.5672006270        3.2473140236
 H         2.6903148241        1.6384718383        4.0095873403
 H         2.5371812735        0.0541788862        4.6666713926
 H         5.9406611868        0.2374867383        3.0879655539
 H         4.9797751160        0.9002560744        4.4145734584
 H         5.1310669443       -0.8173252686        4.1271346181
 H         4.9072009020        2.4185218580       -0.3190457738
 H         6.2246809307        2.6421970174        0.6927615410
 H         7.3941764474        6.7755985003        2.0484702361
 H         6.1156519946        5.6515203721        2.3212281387
 H         5.9895769945        4.5155133216       -2.2454279940
 H         7.3499632094        3.8335949172       -1.2958625237
 H         7.3648650676        5.5077114384       -2.0924799636
 H         5.5616671270        7.3441906325        0.6080102876
 H         7.0003924397        7.3160448441       -0.3741879268
 H         5.5508808415        7.2305324257       -1.1410243025
 H         9.0850171529        5.0452743628        2.8476904387
 H         8.2591550294        6.2014857634        3.9219530136
 H         7.4667428573        6.2094734339        7.7208553462
 H         7.3556677568        6.0171755897        5.9510611375
 H         6.2272895538        5.1913634496        6.9613914760
 H         9.6153308498        1.9170597978        4.5932494346
 H         8.2683051349        1.5690732430        5.6026556166
 H         9.8652873365        1.9367572141        6.3924760189
 H        10.6972402144        4.1533143772        6.0317400015
 H        10.2700865964        4.6747910856        4.3866675078
 H         9.7899084252        5.4873907732        5.8493043759
 Na       -4.1614463112       -1.7320473233       -1.7977180590
