155

 C        -6.2569962194       -5.5093111274       -5.9621677156
 C        -6.0899449146       -4.1699855659       -5.3821361771
 C        -6.1808559895       -2.7730391269       -6.2728700655
 C        -6.9122369342       -1.7488214670       -5.3316301250
 C        -8.2194741279       -1.1293061595       -5.8526166925
 C        -4.7481896846       -2.3202134048       -6.4189015839
 C        -6.8901202329       -2.9088323310       -7.7031381278
 O        -5.7030734217       -4.1356818236       -4.2311774127
 O        -6.3568917524       -1.2109190825       -4.3809303342
 C        -9.1963308297       -0.9573571543       -4.7301084600
 C        -9.4924725685       -2.4047817605       -4.2577380354
 C       -10.5816703272       -2.5880330741       -3.0798397618
 C        -9.8084763535       -2.1179883440       -1.7779884335
 C        -9.6352832834       -2.9915161817       -0.4890123248
 O        -8.8362024569       -3.2984635506       -4.7982476633
 O        -9.2995537448       -0.9590721369       -1.8317444114
 C       -11.7808220462       -1.4869411446       -3.3107168769
 C       -11.1727090960       -3.9641194250       -2.9193282198
 C        -8.4499683922       -2.4881453529        0.3988077784
 C        -7.1079238259       -2.1655855750       -0.2925687138
 C        -6.2341967079       -1.0365911101        0.2143368437
 C        -4.6863837121       -1.1310044193       -0.2997541680
 C        -3.8025910232        0.1135660102       -0.0320571669
 C        -6.8922758769        0.3569467163       -0.1527745004
 C        -6.0887616796       -1.0079003921        1.8248862286
 O        -6.7658733143       -2.7470174251       -1.3717639021
 O        -4.1181450881       -2.2283119598       -0.4698865453
 C        -2.6442873456        0.4625761676       -1.0178647553
 C        -3.0481866251        0.1833772292       -2.4595870647
 C        -2.0215925426        0.0015453064       -3.6763661034
 C        -1.8333499571       -1.5901613515       -3.7908039725
 C        -0.5669045895       -2.1023771125       -4.4482298377
 O        -4.2035132559        0.1163355094       -2.7640902986
 O        -2.8012613950       -2.2568045526       -3.5644671267
 C        -2.7382643823        0.3882017814       -4.9770369356
 C        -0.6774304927        0.7958408949       -3.4699946554
 C        -0.1009610948       -3.4167755086       -3.6948148465
 C         0.7172890712       -2.9906244228       -2.4726426104
 C         1.2097374576       -3.9878754154       -1.3875421631
 C         2.1146088215       -3.1938218815       -0.4502244925
 C         3.3887989469       -2.5620900147       -0.9466400776
 C        -0.0785061747       -4.3639752859       -0.6958095419
 C         2.0460211842       -5.2097154095       -1.8070459742
 O         0.7340337998       -1.7944205572       -2.1412554836
 O         1.8804042573       -3.1869904182        0.7667191893
 C         3.8801506591       -1.6201313521        0.1467298937
 C         5.5155385730       -1.5365932703        0.0367061327
 C         6.3708287088       -0.7269402201        1.0889252668
 C         5.7862926812        0.7404849579        1.2171592014
 C         6.2840280014        1.6455013824        2.3743856010
 O         6.0496437906       -2.2955308684       -0.7355776299
 O         4.7981408909        1.1187549577        0.5575409748
 C         6.1368411732       -1.2937670246        2.5058497550
 C         7.8129321586       -0.8250250857        0.7239941513
 C         6.9371977250        2.9801960649        1.9042474758
 C         6.7509001551        4.0935656036        2.9479614470
 C         7.8815624571        4.6790622881        3.9637187586
 C         7.1755584945        4.5418587268        5.4063274257
 C         6.1155644606        5.6047504288        5.7454182317
 C         9.0958448008        3.6776962742        4.1123319560
 C         8.3256656525        6.0404728043        3.4719331438
 O         5.6054936347        4.5242666139        3.0483620147
 O         7.4675180166        3.6514702727        6.1492690845
 C         6.0197057009        5.8066000202        7.3615624843
 C         5.7019167226        7.2972399552        7.6470476305
 C         6.6467094404        8.3496818247        8.5485940005
 C         8.1335914203        7.7777603849        8.2967713920
 C         8.4828838868        6.6285200236        9.2445814211
 O         4.6465099797        7.7394206367        7.1762119482
 O         8.8650277491        8.2642765999        7.5097007764
 C         6.6335897351        9.7890038092        7.9006502354
 C         6.3318273058        8.2851796859        9.9907555174
 H        -5.3190730302       -5.9694693036       -5.8840942767
 H        -6.8989264248       -6.0561061926       -5.3484893371
 H        -6.5114201317       -5.4937370918       -6.9546121059
 H        -8.0254178027       -0.1898597519       -6.4304688519
 H        -8.7063920151       -1.6930183746       -6.6472452816
 H        -4.2152052955       -2.2248019149       -5.4228868725
 H        -4.8558204987       -1.3201778980       -6.9056101158
 H        -4.1468217195       -2.8911056506       -7.0725020011
 H        -6.1041374820       -3.2548020420       -8.3906779105
 H        -7.7658970092       -3.6727515384       -7.6653546216
 H        -7.2526281776       -1.9472535096       -8.1013620381
 H        -8.7459755920       -0.3228467123       -4.0435078003
 H       -10.1375720966       -0.4910388913       -5.1291118585
 H       -10.6054679481       -3.0288174004        0.0764958124
 H        -9.2788634435       -3.9789672306       -0.7055881117
 H       -11.6322321198       -0.5136766053       -2.9122802919
 H       -12.7903116836       -1.7917969024       -3.0317391588
 H       -11.9134912405       -1.2899615718       -4.4267809633
 H       -11.7872743365       -3.9107114655       -2.0364964364
 H       -11.7705605328       -4.4237952398       -3.7702311876
 H       -10.2537266078       -4.5739732895       -2.7241170201
 H        -8.2372990334       -3.2618269954        1.1573517485
 H        -8.7256755418       -1.6366856979        1.0142038825
 H        -4.3925842515        1.0280737766        0.1835723880
 H        -3.3470103940       -0.1539739556        0.9252022149
 H        -7.2890452361        0.2890354843       -1.1931585233
 H        -6.1789035623        1.1793594474       -0.2369193249
 H        -7.6778531154        0.5500178975        0.5365625466
 H        -5.2981952643       -1.5446600569        2.3094192789
 H        -6.0722784180        0.0339676744        2.2075410739
 H        -7.0422164369       -1.4413744530        2.2730245436
 H        -2.1936769583        1.4278981057       -0.7909584667
 H        -1.8343334268       -0.2130774562       -0.7673706723
 H        -0.9882207104       -2.4060384516       -5.4379254819
 H         0.2377921321       -1.4349965141       -4.5831348938
 H        -2.1427217585        0.1867701367       -5.8798296463
 H        -3.0119395087        1.4642005090       -4.9124649147
 H        -3.6770828995       -0.3236487465       -5.0194475061
 H         0.0085027253        0.6867914890       -4.3608226871
 H        -0.9150018279        1.8538324896       -3.4734597229
 H        -0.1341167993        0.5387339491       -2.5017312451
 H         0.4516616863       -4.1778792646       -4.2622456406
 H        -0.9680981030       -4.0410403657       -3.5425699950
 H         4.1453340419       -3.3254193165       -1.0952736868
 H         3.2162001234       -2.0861878871       -1.8890012935
 H        -0.6971115274       -5.0888343972       -1.2672248094
 H        -0.6625465818       -3.5029178570       -0.3304125552
 H         0.1017604485       -4.9643040931        0.1875834383
 H         2.8548498405       -4.9761489028       -2.5098953525
 H         2.4364259271       -5.6680538637       -0.8835906567
 H         1.4993545215       -5.9590343889       -2.3013559032
 H         3.4733525225       -0.6501849176        0.0031668176
 H         3.5616990967       -2.0203532828        1.1006858752
 H         5.6282329358        1.8333591916        3.1815573821
 H         7.0927109647        1.0943716895        2.9011322086
 H         6.7746839848       -2.2248388596        2.6239584047
 H         5.1380424022       -1.6629752696        2.7361691983
 H         6.4970265373       -0.5365920338        3.2646937049
 H         8.1746110810       -0.2543380344       -0.1704198110
 H         8.4743119842       -0.5360178405        1.5715753094
 H         7.9204509669       -1.9161278354        0.5316028806
 H         6.4450318061        3.3978329297        1.0322863308
 H         7.9900745583        2.8064870496        1.6752670170
 H         6.4139339506        6.5895264379        5.2782234595
 H         5.2505612617        5.3485651898        5.1888132349
 H         9.6525138821        3.6000963641        3.1741569464
 H         9.0298856143        2.7018648358        4.3891588299
 H         9.7349796196        4.1950591631        4.8258840674
 H         9.3512157675        6.1848021133        3.4875337077
 H         8.1899221988        6.1687718931        2.3892100650
 H         7.8420696317        6.8815660877        3.8618515129
 H         5.2447025074        5.2741536587        7.7836751729
 H         6.9913314080        5.4741443357        7.7991116933
 H         9.0284287406        7.0555584837       10.0365031074
 H         7.6088423053        6.1726095360        9.6704920561
 H         9.1846956255        5.8702466293        8.8316209968
 H         5.5929956855       10.2789014634        7.7625072699
 H         7.0648076615        9.8627038991        6.8800941809
 H         7.1929225106       10.4559863370        8.6500217811
 H         5.8080797355        7.3712472000       10.2531735658
 H         7.2795128568        8.3677291439       10.4759389643
 H         5.8075293018        9.1316848153       10.4792597233
 Na       -4.9961731836       -2.1141934645       -2.9158463167
