155

 C        -6.4080407758       -5.7970234790       -5.2598084444
 C        -5.5565591302       -4.4499526299       -5.3404560824
 C        -5.9088099580       -3.4641542317       -6.4873113788
 C        -7.0052502458       -2.4673222184       -6.1020961014
 C        -8.5019941166       -2.5774590717       -6.5496098789
 C        -4.6086677771       -2.4906697512       -6.7846097740
 C        -6.2564495640       -4.1192365337       -7.9012195754
 O        -4.7033793207       -4.1642961542       -4.5563581720
 O        -6.7446295471       -1.4648530317       -5.4667417283
 C        -9.5982704763       -2.1729559879       -5.5114271542
 C        -9.6376584726       -3.2119864541       -4.4017086906
 C       -10.3673669041       -3.0176549533       -2.9716039217
 C        -9.0930000872       -2.9913422518       -2.0213365996
 C        -8.2357986129       -4.1873289182       -1.7389083938
 O        -8.8169286800       -4.1584658633       -4.4745533341
 O        -8.8526495972       -1.9239580317       -1.4470342505
 C       -11.1116833098       -1.7223663888       -2.8051256972
 C       -11.3242685457       -4.2644304872       -2.6751795182
 C        -7.2334779082       -3.8526959894       -0.6563157028
 C        -6.3711454451       -2.6799423721       -1.1476319867
 C        -5.6527080979       -1.6595255145       -0.1601202635
 C        -4.3909654185       -1.0814808974       -1.0464366484
 C        -4.3345659220        0.4780090618       -1.3388572246
 C        -6.6862076431       -0.6348538354        0.2953971899
 C        -5.0418356913       -2.3707464943        1.1275556812
 O        -6.1789509824       -2.5806756256       -2.3393983340
 O        -3.5715025262       -1.8729484280       -1.4703780916
 C        -3.0434506858        1.0647352473       -1.9049241436
 C        -3.1526869777        0.7722522514       -3.4619664003
 C        -1.8215212152        0.6429810769       -4.3027362073
 C        -1.2625151238       -0.7753046517       -4.2929693081
 C         0.2374653391       -0.9637375171       -4.6735544500
 O        -4.2525411947        0.5777269147       -3.9387967584
 O        -1.9277077995       -1.7528262679       -4.2912000355
 C        -2.1857561067        1.0637058863       -5.6757545025
 C        -0.7945980935        1.6467282619       -3.6720990067
 C         0.8765117862       -2.0432135762       -3.7320990787
 C         0.7516429426       -1.7881650605       -2.2207835346
 C         0.9903736036       -2.9117735855       -1.2032488487
 C         2.0290620162       -2.2790544575       -0.0463804804
 C         3.2667610147       -1.6446101307       -0.6460523101
 C        -0.2685896961       -3.3514121958       -0.3745621740
 C         1.6334533180       -4.1859625987       -1.8675899295
 O         0.4525909911       -0.6529793991       -1.8377807902
 O         1.7995203003       -2.4154153866        1.1044319750
 C         4.4155508150       -1.8897634624        0.3248521664
 C         5.6172247249       -0.8590212579       -0.0904939056
 C         6.3467422035       -0.1137266429        1.1056731470
 C         5.3854607458        0.6831921075        2.0613981480
 C         5.9593267194        1.6574648255        3.0655398194
 O         6.0532360989       -0.7686657480       -1.2044265541
 O         4.1554837550        0.4638071294        2.0337751134
 C         6.9192547501       -1.2876405985        1.9852593475
 C         7.4700968840        0.7982367082        0.6173173908
 C         5.0263703487        2.4269385155        4.0194322992
 C         5.6907141202        2.5474711444        5.3809261438
 C         6.9775683766        3.4255122289        5.5915040342
 C         6.3684655719        4.5658605325        6.5454674515
 C         5.4993265491        5.6729837741        5.7968398673
 C         8.0992980418        2.6851324459        6.2686411930
 C         7.5980016570        4.1997294917        4.4202986321
 O         5.2439831047        1.9932207760        6.3862020348
 O         6.3385539690        4.4728521936        7.7239048128
 C         4.9309064065        6.7920828808        6.7370762217
 C         5.6955893592        8.1007120001        6.9206365877
 C         6.3048052222        8.5851976874        8.3590564238
 C         7.6290264588        7.9164498146        8.5254455099
 C         8.5228192671        8.4228176815        9.7751348860
 O         5.7986819586        8.8708520092        6.0104739328
 O         7.9994149596        6.9103353835        7.9682897220
 C         6.4608918534       10.1611128983        8.3930840553
 C         5.4214513405        8.0887907192        9.5072939373
 H        -6.8589578039       -6.0663318890       -6.1909657068
 H        -5.6771736344       -6.4822858437       -4.9154377337
 H        -7.0421169214       -5.6737195200       -4.4949485968
 H        -8.5777928503       -2.0347702579       -7.5227916296
 H        -8.6479595320       -3.6019771062       -6.9422275811
 H        -4.0837188819       -2.1460882398       -5.9328514189
 H        -5.0819679278       -1.6444718652       -7.3516215595
 H        -3.8442153778       -3.0586537274       -7.3068623508
 H        -5.4699181532       -4.8827761687       -8.1492811390
 H        -7.2822032245       -4.6812157537       -7.8786540970
 H        -6.2381530237       -3.3879478818       -8.7475905300
 H        -9.3449308116       -1.3414156487       -4.8797240588
 H       -10.5933198395       -1.9694873901       -6.1207619963
 H        -8.9476536878       -4.9720508810       -1.3566846613
 H        -7.7942281152       -4.5515390246       -2.6251903231
 H       -10.4197469829       -0.9913305069       -2.5353079430
 H       -11.8705900289       -1.8696995863       -2.0167838349
 H       -11.5772676660       -1.4099016141       -3.6974536056
 H       -11.7506987580       -4.2927393396       -1.6329865863
 H       -12.2841042026       -4.2308927110       -3.1134901611
 H       -10.9077464337       -5.2539944311       -2.9788401366
 H        -6.6533802412       -4.7789128434       -0.5915720530
 H        -7.7179372393       -3.7371872253        0.2944180893
 H        -5.0977813496        0.6348987153       -2.1382272189
 H        -4.8239984725        1.0973655475       -0.5931913175
 H        -7.1989926445       -0.1092983643       -0.5111327145
 H        -6.1787735010        0.0452020533        0.9671814558
 H        -7.5142651865       -1.1193833437        0.8923588970
 H        -4.1675176983       -2.9593415364        0.7916624455
 H        -4.8302439872       -1.5913073968        1.8974660329
 H        -5.7849454221       -3.0248904072        1.5943304681
 H        -2.9565266439        2.1206191985       -1.7186195695
 H        -2.1645662641        0.5217747957       -1.5629649793
 H         0.4483118353       -1.3121460055       -5.7322263368
 H         0.6645978971        0.0121344984       -4.5193843507
 H        -1.3463644407        1.1777809337       -6.3476836943
 H        -2.5891509629        2.1353693256       -5.7440901161
 H        -2.9931734855        0.4159860231       -6.0262147260
 H         0.0170298399        1.9148935664       -4.3510070480
 H        -1.3105921275        2.6012848331       -3.4948891444
 H        -0.3543816394        1.3795266550       -2.7928709675
 H         1.8962700870       -2.3303363107       -3.9909958126
 H         0.4670250847       -3.0359591323       -3.9143618051
 H         3.4337269861       -1.9802157191       -1.6587669521
 H         3.1302169326       -0.5702505741       -0.5055644123
 H        -1.1249149540       -3.4976342061       -1.1219893617
 H        -0.6207227558       -2.6999604935        0.3516020533
 H         0.0649650865       -4.2324280656        0.2084636530
 H         2.6502663542       -4.0974039505       -2.2497430871
 H         1.6124989658       -4.9945473745       -1.1703042622
 H         1.0670623355       -4.4724015221       -2.7944274219
 H         4.1610807676       -1.8315955248        1.3411625286
 H         4.7974605247       -2.8861057323        0.1663442246
 H         6.6892475840        1.1325363314        3.7098712323
 H         6.6264343467        2.3745520131        2.6309229594
 H         7.8454032394       -1.9198705698        1.6333152950
 H         6.0565724036       -1.9393271881        2.2263394363
 H         7.1655560237       -0.8319378183        3.0075342103
 H         7.1178396469        1.7381622225        0.2250888818
 H         8.1186848818        1.0771357224        1.4042518518
 H         7.9903700059        0.2489783048       -0.1609853383
 H         4.0117589760        1.9583757914        4.0877542021
 H         4.7244049263        3.4121166223        3.7226174598
 H         6.1251191862        6.2816293796        5.1188934953
 H         4.9217729666        5.1059032447        5.1293737264
 H         8.4736823487        1.8453467874        5.5444780545
 H         7.7458824758        2.3488224201        7.1646082588
 H         8.8952111392        3.3944555088        6.3290113533
 H         8.2407796891        4.9706816234        4.7509166683
 H         8.2679819442        3.4897362217        3.8761559835
 H         6.9198433250        4.5442580240        3.7077542029
 H         3.9297171739        7.0486970432        6.4241178056
 H         4.7298311928        6.3676199962        7.7389468105
 H         7.9197175470        8.6905776137       10.7021698943
 H         9.1811197004        7.5462564593       10.0088028781
 H         9.2183132163        9.2009624101        9.4936275403
 H         5.5450398058       10.7484813699        8.2604632400
 H         7.0797575230       10.4112281081        7.5734835233
 H         6.8394538064       10.4963017219        9.3215113859
 H         5.4009628794        6.9695587156        9.4564036430
 H         5.8185516177        8.4413344210       10.4299075648
 H         4.4015399733        8.4238405223        9.4799452310
 Na       -4.7484735247       -1.7343360651       -3.9313925142
