155

 C        -6.0233990835       -6.0196432954       -5.5774368029
 C        -5.5639688304       -4.5185421010       -5.5205421095
 C        -5.6727805635       -3.5551649319       -6.8140970041
 C        -6.6221919516       -2.5013472767       -6.2033023973
 C        -8.1737520897       -2.4841827063       -6.5607706803
 C        -4.4635550647       -2.7186071085       -7.2460631229
 C        -6.2877438546       -4.3010148531       -8.0770937570
 O        -5.0996103117       -4.0514626779       -4.5068114630
 O        -6.2853135622       -1.7860828548       -5.2889523592
 C        -9.0620212593       -2.2124736245       -5.3780029052
 C        -9.1002138079       -3.3714430801       -4.3241095837
 C       -10.1095480495       -3.0974381262       -3.0531043302
 C        -9.2438500192       -2.9686349969       -1.7271616031
 C        -8.3438055241       -4.2097268043       -1.2899644685
 O        -8.5665977959       -4.4690295135       -4.5161808267
 O        -9.3584448781       -1.9529816214       -1.0793951656
 C       -10.9126175662       -1.7617396928       -3.2214427928
 C       -11.0477819167       -4.2476096007       -2.7800237290
 C        -7.0658224779       -3.8053991119       -0.5976411867
 C        -6.2359710046       -2.6016194907       -1.2624824223
 C        -5.3853540773       -1.7170838991       -0.2637647865
 C        -4.3573191283       -0.8355714651       -1.0832457009
 C        -4.3517224667        0.6789437860       -1.1420989393
 C        -6.4394284686       -0.8822696126        0.4812268227
 C        -4.5162384801       -2.5173256529        0.8152664362
 O        -6.2778069995       -2.4418532034       -2.4927829953
 O        -3.4569352784       -1.4811808623       -1.6392486453
 C        -3.2931846873        1.3819119017       -2.1009103899
 C        -3.3480505263        0.8303068398       -3.5916186151
 C        -2.0262275346        0.9113229124       -4.5379346222
 C        -1.3307789936       -0.4926303974       -4.3694853737
 C         0.1865404096       -0.6129381331       -4.3906509446
 O        -4.4283825094        0.5312753567       -3.9781447930
 O        -2.0036686496       -1.4683982287       -4.1565969657
 C        -2.3794428348        1.0284714517       -6.1103754616
 C        -1.2212738565        2.1291108270       -4.0059708420
 C         0.6207809214       -1.8978026128       -3.7628022822
 C         0.5586500792       -1.7753590824       -2.2154824085
 C         0.9174222219       -2.9289472168       -1.1875851096
 C         1.9335161426       -2.3527238276       -0.1646282068
 C         3.3275505384       -1.9272261604       -0.6938861207
 C        -0.4013928835       -3.3463917989       -0.4810146220
 C         1.6099584720       -4.1500158603       -1.8345800068
 O         0.1518453857       -0.7192002748       -1.7386018803
 O         1.7596700929       -2.2474428520        1.0255406826
 C         4.3981636937       -1.8642042704        0.4344683893
 C         5.5228103632       -0.8846364850        0.0610954576
 C         6.3351368692       -0.0423473925        1.1082391190
 C         5.3576263739        0.7420139519        2.1278043258
 C         5.8314135100        1.8329775664        2.9627274749
 O         5.8356736462       -0.7346819342       -1.1182245548
 O         4.2140939947        0.3152898645        2.1862689438
 C         7.0434184385       -1.1249695297        2.1879032716
 C         7.4423272662        0.8275862364        0.4530862473
 C         4.9519640647        2.1873314185        4.1837099462
 C         5.7582304733        2.2896160650        5.4535788651
 C         6.6585249874        3.5685621575        5.7388869877
 C         5.8692484462        4.4926961476        6.7264774513
 C         4.8208454750        5.5412633102        6.1891870771
 C         7.9631479610        3.0720492934        6.5613969512
 C         7.1488679427        4.3621762032        4.5437702927
 O         5.6083670168        1.4182304649        6.3314514852
 O         5.8748961866        4.2669178369        7.8963076663
 C         4.6897694430        6.6916811308        7.3138466698
 C         5.7444554285        7.7430433724        7.0757603913
 C         6.3703893542        8.7201570894        8.2800954282
 C         7.7456995691        8.0231729130        8.7135171971
 C         8.3131875942        8.5831705810       10.0153097870
 O         6.0525040646        8.0658137962        5.9437079447
 O         8.0761854897        7.0643019382        8.1177772703
 C         6.7971731388       10.0889334386        7.6503067627
 C         5.4533951345        8.8282641484        9.4774971445
 H        -6.3924750131       -6.3634690286       -6.5046984350
 H        -5.1411418708       -6.5041662809       -5.3732888911
 H        -6.6609500059       -6.1553526901       -4.7716418591
 H        -8.3880467885       -1.7338287557       -7.3673318596
 H        -8.3072393555       -3.5221026186       -6.9766627740
 H        -4.1260226595       -2.1636194215       -6.3886802125
 H        -4.7486073202       -2.1325373589       -8.1149710356
 H        -3.6099685151       -3.3537730276       -7.5368996522
 H        -5.6206309031       -4.9375062650       -8.5285042914
 H        -7.0862495416       -4.9274906661       -7.7900081568
 H        -6.5013952197       -3.5595619067       -8.8655799055
 H        -8.6625511397       -1.3444409751       -4.9201354941
 H       -10.1725032829       -2.1418395920       -5.7140604328
 H        -8.9699287236       -4.9838372845       -0.6927729719
 H        -8.0773885010       -4.7263058638       -2.1956459851
 H       -10.2644313399       -1.0173340547       -3.5372076098
 H       -11.2826955794       -1.4057583083       -2.2074200611
 H       -11.7336637099       -1.8471921655       -3.9411508980
 H       -11.5920349211       -4.2687333275       -1.8363697936
 H       -11.7675790853       -4.3892358981       -3.4944640810
 H       -10.4434190924       -5.1991909838       -2.6641995038
 H        -6.3873480564       -4.6418143505       -0.8610767456
 H        -7.2324305118       -3.7512744808        0.4934548882
 H        -5.3997954157        0.9710358227       -1.4220944286
 H        -4.2768930427        1.1286598488       -0.1410228723
 H        -6.9023621468       -0.1363654551       -0.1402615735
 H        -5.9035734399       -0.3405479169        1.2271030886
 H        -7.1776443857       -1.5806724658        0.9798587728
 H        -3.9654790904       -3.2991235349        0.2298054997
 H        -3.6696258703       -1.9173791281        1.1319357711
 H        -5.1608679366       -2.9822302476        1.4709154644
 H        -3.4816552214        2.4349924225       -2.1822836833
 H        -2.3024948138        1.2782723269       -1.6832431521
 H         0.4537573664       -0.3981314423       -5.4474216799
 H         0.5531360668        0.1020730777       -3.6627622995
 H        -1.5457510893        0.8210168668       -6.6942963360
 H        -2.8406908982        2.0377702232       -6.3298439709
 H        -3.2045150650        0.3397992773       -6.4215531630
 H        -0.3088373347        2.4109376699       -4.4916306143
 H        -1.8380455767        3.0398911070       -4.0194900581
 H        -1.0274937239        1.9982493991       -2.9842734954
 H         1.5931883299       -2.2369979094       -4.0757249120
 H         0.0710483209       -2.8020685180       -3.9249598630
 H         3.6433418982       -2.4985580597       -1.5494199642
 H         3.1246289239       -0.9241514764       -1.0977875230
 H        -1.1295528673       -3.8393630742       -1.2219700494
 H        -0.8505793405       -2.5173314386       -0.0827774489
 H        -0.1861717490       -3.9663239670        0.3898095487
 H         2.4426289673       -3.8352178715       -2.4951200681
 H         2.0947285359       -4.8036209205       -1.1602828895
 H         0.9621196066       -4.8135688182       -2.5505995527
 H         4.0959165972       -1.7220026619        1.4155214171
 H         4.8519394457       -2.8180622033        0.4193385662
 H         6.8317248384        1.6843517078        3.4070972854
 H         5.9465415521        2.7147380380        2.3592935228
 H         7.7190808944       -1.8542005061        1.7664355558
 H         6.2142187306       -1.5821571408        2.7909200602
 H         7.7516539149       -0.5665962275        2.8046640259
 H         7.0489631781        1.6744457347       -0.0722866849
 H         8.1110176354        1.2370177061        1.1595722103
 H         7.9733685710        0.1300533441       -0.1145322925
 H         4.2489891404        1.3057688484        4.3634224476
 H         4.4250240202        3.1423443889        4.0418820856
 H         5.1841517607        5.8194088555        5.1805437778
 H         3.8715664415        5.0956185411        6.0095636381
 H         8.5857140414        2.5572166786        5.7998549711
 H         7.7597729176        2.4567941071        7.3919857232
 H         8.3477700741        3.9662148709        6.8776604705
 H         7.5077343436        5.3106420541        4.8846137423
 H         8.0488934914        3.8830706757        3.9386510037
 H         6.3710224307        4.5407802191        3.7857111533
 H         3.7004095122        7.1422401572        7.3058567706
 H         4.8396497736        6.2341720184        8.2839030025
 H         7.6689064090        8.2765474604       10.8895914443
 H         9.3017990206        8.1542154873       10.1178418832
 H         8.6002041492        9.5929650609        9.9398965036
 H         6.0154355775       10.5530820661        7.0378179086
 H         7.5700298889        9.9173030782        6.8919553021
 H         6.8674286343       10.8306376571        8.4980539092
 H         5.4713361211        7.9189735756       10.1398478414
 H         5.7072535527        9.6489153121       10.1268774433
 H         4.4361230447        8.9533800785        9.1414316724
 Na       -4.3693313626       -2.0066916285       -3.9371943759
