155

 C        -5.4784556561       -6.3714424133       -5.9990457533
 C        -5.1047761625       -4.8381344007       -5.8371964964
 C        -5.5436121165       -3.7813090185       -6.8718941537
 C        -6.3891773642       -2.6228385452       -6.1807871308
 C        -7.9753462209       -2.6427486148       -6.3806529361
 C        -4.1584450219       -3.2067436014       -7.3664569050
 C        -6.2945045954       -4.4806474478       -8.0111868673
 O        -4.4252266459       -4.5292205366       -4.8388628329
 O        -5.8983032899       -1.6065665448       -5.7035748530
 C        -8.7493215718       -1.9912455513       -5.2704453880
 C        -9.0363028204       -3.0980744880       -4.2917172517
 C       -10.0375593482       -3.1403908827       -3.1216514131
 C        -9.1217748196       -2.8826235921       -1.7384353066
 C        -8.1126480274       -4.0595592484       -1.4137460520
 O        -8.4100588877       -4.1420766838       -4.3596398650
 O        -9.3213544593       -1.9501019388       -1.0251943437
 C       -11.1135667616       -2.0442867503       -2.9607902654
 C       -10.7193287867       -4.5297983153       -3.1870902397
 C        -7.1925725822       -3.4103607679       -0.4002338355
 C        -6.0720347130       -2.4535879855       -1.1133298194
 C        -5.1814798067       -1.5585821927       -0.1473600998
 C        -4.2711049039       -0.7105321589       -1.1410872230
 C        -4.4276737206        0.7543137223       -1.1896982313
 C        -5.9683622828       -0.8060568745        0.8705894690
 C        -4.2356572927       -2.5482327351        0.4885369035
 O        -6.0643962590       -2.4093669063       -2.3482299730
 O        -3.5594376019       -1.3691202121       -1.9346413269
 C        -3.2747818841        1.3946245128       -2.0595303295
 C        -3.4509403484        0.9022650622       -3.5849163598
 C        -2.3142945175        0.9628921363       -4.6901333968
 C        -1.5140735577       -0.4416940555       -4.5414063926
 C         0.0415807097       -0.4043176254       -4.3293242830
 O        -4.5457706467        0.5340358780       -3.8658202628
 O        -2.0877589956       -1.5381538674       -4.6319094413
 C        -2.8817986417        1.0924301294       -6.1162863152
 C        -1.4622138809        2.1819127922       -4.1932914142
 C         0.6138917092       -1.5981989636       -3.6028542181
 C         0.2355275538       -1.5769944217       -2.0882907806
 C         0.7054506952       -2.8480946677       -1.2710852492
 C         1.9116663782       -2.4746216458       -0.2464641668
 C         3.3997804490       -2.1987466343       -0.7030370288
 C        -0.5158526043       -3.3607960684       -0.5124878191
 C         1.3129966530       -3.9115569951       -2.1750720944
 O        -0.3432672887       -0.6886984810       -1.4660490979
 O         1.7296718413       -2.5158461985        0.9537801558
 C         4.2991685371       -1.8830532588        0.4791489648
 C         5.3666908348       -0.8179049437        0.1227976310
 C         6.2784051119       -0.1699089754        1.2800450343
 C         5.3027853159        0.8022996972        2.1768480526
 C         5.9136736962        1.8717995539        3.0405336766
 O         5.4591377851       -0.3622199610       -1.0187032865
 O         4.1664436942        0.5500452001        2.1733917585
 C         7.0543347583       -1.2683548504        2.0777289965
 C         7.3139428680        0.7957186879        0.6217285053
 C         4.9776791955        2.3124604986        4.1874210687
 C         5.8976676687        2.2942479232        5.4378691765
 C         6.3949644020        3.6356004564        6.1476275021
 C         5.4202607654        4.2699413641        7.3278795427
 C         4.4330557869        5.4128170465        6.9798537163
 C         7.7578533950        3.4861331958        6.7860351625
 C         6.5683170026        4.7076732891        5.0096887788
 O         6.2359474557        1.1850234292        5.8804755322
 O         5.5722407660        3.8730599972        8.4577704983
 C         4.7975502034        6.6886176239        7.7787919530
 C         5.8007347950        7.6822469060        7.0084299080
 C         6.4102112640        8.8304063689        7.9367134780
 C         7.5547604227        8.0959465704        8.7934970675
 C         8.0759172037        8.5743952230       10.1299599300
 O         6.2240461592        7.4172643745        5.9019261931
 O         8.1018800817        7.1527286729        8.2537116398
 C         7.0326913522       10.0275854869        7.1777615356
 C         5.2990267219        9.3132276526        8.9266520187
 H        -4.7829534621       -6.8303781605       -6.6248071073
 H        -5.3356597467       -6.8252662110       -5.0678471548
 H        -6.5292956844       -6.4598013950       -6.3403695870
 H        -8.1037791209       -2.0768050452       -7.3227128766
 H        -8.3291989662       -3.6840954796       -6.4109478735
 H        -3.5286942014       -2.7548277318       -6.5700934585
 H        -4.3202593137       -2.4553867573       -8.0903574536
 H        -3.6552470567       -3.9699301337       -7.9839048825
 H        -5.6474422017       -5.0581477909       -8.5862042931
 H        -7.0909952353       -5.0459854877       -7.7269807837
 H        -6.6592687767       -3.6709731326       -8.6226022369
 H        -8.2221276863       -1.3205612048       -4.6874992236
 H        -9.7089020914       -1.6384296349       -5.7348088482
 H        -8.7165734891       -4.9840499288       -1.0281655260
 H        -7.5908538388       -4.4797693545       -2.2620876750
 H       -10.6559091813       -1.0600340117       -3.0157217858
 H       -11.5476292660       -2.1312978793       -1.9354184553
 H       -11.9581188201       -2.1314627824       -3.7035314417
 H       -11.3818976045       -4.7811067086       -2.4168835066
 H       -11.1314383566       -4.6368928493       -4.1565794600
 H       -10.0694986240       -5.4166998341       -3.0926880728
 H        -6.7680617251       -4.2194572205        0.2467933470
 H        -7.8834372355       -2.7768542736        0.2338863919
 H        -5.4616817955        0.9669099466       -1.6035568018
 H        -4.3730662335        1.1610988884       -0.1660914389
 H        -6.6126379247       -0.1199428375        0.3651789289
 H        -5.2555063927       -0.2706313411        1.4521147747
 H        -6.4580640191       -1.4965658467        1.5966649087
 H        -3.5346836554       -2.8925231497       -0.3351846592
 H        -3.5865988928       -2.0653742601        1.2445637949
 H        -4.7617318969       -3.3876622840        0.8430975605
 H        -3.1944220867        2.4802853970       -2.0974109830
 H        -2.2998598665        1.0842536240       -1.6902428138
 H         0.4582832038       -0.5339053480       -5.3308811458
 H         0.1729623593        0.5356369016       -3.8296594612
 H        -2.1230391644        1.3175446108       -6.7549214684
 H        -3.7053964908        1.7915907514       -6.0886761069
 H        -3.2005604116        0.1512822076       -6.5782410174
 H        -0.6150043255        2.3950620952       -4.8420417556
 H        -2.0029977377        3.1641373581       -4.1820997520
 H        -1.0131597160        1.9941033592       -3.1892934330
 H         1.6902759844       -1.5508306753       -3.7540605400
 H         0.3404613843       -2.4944244539       -4.1311834633
 H         3.7288759863       -3.0555256518       -1.2834795936
 H         3.2946012963       -1.4990219201       -1.5325924218
 H        -1.2561335700       -3.6707137724       -1.2161689575
 H        -0.9222443428       -2.5324320560        0.1525802730
 H        -0.3468871671       -4.2444361356       -0.0159124317
 H         2.1171105452       -3.5333281030       -2.7903221532
 H         1.6993283317       -4.7741659974       -1.7327441255
 H         0.5133664384       -4.4083489183       -2.8107311784
 H         3.7437419768       -1.7008910393        1.4032885862
 H         4.9157444150       -2.7620399045        0.6888660392
 H         6.8043285137        1.3804838630        3.4948249897
 H         6.1821923666        2.7325644876        2.4468405349
 H         7.7085981509       -1.7613081823        1.4487687013
 H         6.3773055324       -2.0362193644        2.4963088379
 H         7.5297788983       -0.8047283726        2.8969413171
 H         6.7829577293        1.6595120865        0.0859395340
 H         8.0032058659        1.1166571034        1.4589781860
 H         7.9668985765        0.2347282088       -0.0493494388
 H         4.4056772395        1.3639774189        4.2275969068
 H         4.5637169942        3.2474646267        3.9150904658
 H         4.2796017148        5.5890423701        5.8546746944
 H         3.5157254590        4.9245659935        7.3060012523
 H         8.3180845155        2.9471520467        6.0849421909
 H         7.5778346488        2.8926942155        7.7112184551
 H         8.0982228805        4.4438195150        7.0628962642
 H         6.9388670243        5.6670368942        5.3467128327
 H         7.2846511564        4.3686400728        4.1946033960
 H         5.6066908973        5.0101205615        4.5294596722
 H         3.8830948206        7.2785377372        7.8883368808
 H         5.3023767683        6.4622569245        8.6879341500
 H         7.5623590347        8.0437977175       10.9526349933
 H         9.1238946249        8.4577747397       10.2127311759
 H         7.8809596662        9.6265314826       10.1179910138
 H         6.2590949538       10.6941351624        6.7654877211
 H         7.6263405830        9.5241072466        6.3085707915
 H         7.8740086668       10.4592384003        7.8861709805
 H         4.9631878362        8.4406671248        9.5144904617
 H         5.6243815213        9.9696135734        9.7308632141
 H         4.4488652705        9.7119664135        8.4112212223
 Na       -4.4185070096       -2.1250154633       -4.0795494604
