155

 C        -4.7714217570       -6.5952557143       -4.1444684352
 C        -4.4901523026       -5.1581099464       -4.4619647391
 C        -4.3130855512       -4.7406925626       -6.0011424342
 C        -5.4089072545       -3.6650872286       -6.3054292650
 C        -6.4734319144       -4.1007923415       -7.2198988381
 C        -2.9242245125       -4.0380792756       -6.0937494554
 C        -4.3158839472       -6.0150766927       -6.8828694370
 O        -4.2228313247       -4.3190939791       -3.6259059290
 O        -5.2841356014       -2.5114926873       -5.9121804906
 C        -7.9382712738       -3.7127791647       -6.7226151812
 C        -8.3114707908       -4.6033339033       -5.4751422460
 C        -9.6777502155       -4.3873322960       -4.6137840136
 C        -9.2613735674       -3.6007372953       -3.2819676855
 C        -8.4296417851       -4.4398051539       -2.2654434077
 O        -7.6011585003       -5.5233794697       -5.1656595735
 O        -9.7234536785       -2.5379157666       -3.0354502861
 C       -10.8192724276       -3.6425508430       -5.4248576278
 C       -10.1778805587       -5.7213547066       -3.9747638548
 C        -7.8583559719       -3.4197871107       -1.2119833532
 C        -6.6505597567       -2.5107843701       -1.7046261872
 C        -5.7206616984       -1.9217990498       -0.5424675457
 C        -4.4641610921       -1.2446888273       -1.2051595895
 C        -4.0499830977        0.1877696493       -0.7656928480
 C        -6.5015990849       -0.9579357024        0.3523694708
 C        -5.0870823248       -3.1109354911        0.2140088721
 O        -6.4754314489       -2.4068795344       -2.9121322781
 O        -3.7718491286       -1.7681718438       -2.0792748191
 C        -3.1385610783        0.8874665140       -1.7543185978
 C        -3.5502728249        0.8599132432       -3.2127352741
 C        -2.5648115596        1.4548503014       -4.2140052499
 C        -1.6463495772        0.2193527126       -4.7437424751
 C        -0.2987464079        0.5831778476       -5.4024221765
 O        -4.6183053116        0.4139820610       -3.5844197724
 O        -2.0982956272       -0.9042970233       -4.7610882769
 C        -3.3089212715        1.9940429820       -5.4372458079
 C        -1.7450078173        2.6041632397       -3.5897094913
 C         0.7409071729       -0.4545767015       -4.8770609835
 C         1.2776500258       -0.0936737546       -3.4383793500
 C         2.7472549421       -0.2417119898       -3.1029082226
 C         2.9199165833       -0.7541452802       -1.6581553509
 C         2.5169093950        0.1530642799       -0.4672775835
 C         3.5400262141       -1.1127101827       -4.0765227634
 C         3.3506645717        1.2193255187       -3.1213168118
 O         0.5059448482        0.4751170627       -2.6429194453
 O         3.4410451875       -1.8348297382       -1.3530316218
 C         2.7009434014       -0.5518221412        0.8753444524
 C         4.0438185660       -0.1316017422        1.3064642145
 C         4.5443607816       -0.7460178157        2.7466883514
 C         3.9878195748        0.4034823167        3.7524125419
 C         4.7019093186        0.6640897560        5.0383827025
 O         4.8053530696        0.5363019101        0.6263458593
 O         2.9425984569        0.9036545478        3.5761802634
 C         3.8960271936       -2.0119731954        3.0932959681
 C         6.0920101762       -0.8204367571        2.6168069862
 C         5.9012670889        1.6160974692        4.9547360014
 C         6.6072900980        1.7935138373        6.4031765220
 C         7.5271177182        3.0047274263        6.9488006602
 C         6.5696780102        4.2034035940        7.0559888473
 C         6.6155937962        5.2556361757        8.1585825923
 C         8.0297634375        2.5171966377        8.3700818578
 C         8.6398897699        3.2383368162        5.9285506848
 O         6.3807609604        0.9495701076        7.2227979968
 O         5.8013840562        4.2809696029        6.1279733795
 C         5.3637851369        6.1926448985        8.3885551473
 C         5.0850067831        7.5040351325        7.5235824697
 C         5.5219884338        8.8203880521        8.2492482651
 C         4.5189524462        9.0876300284        9.4173667328
 C         3.0179555241        9.1144844658        9.2098153805
 O         4.4602879398        7.4794959531        6.5004943264
 O         4.9756024102        9.4594988710       10.4497049727
 C         7.0168066953        8.6640041267        8.7856195149
 C         5.4866827670       10.0649718158        7.2364722863
 H        -4.6402283779       -6.6352988644       -3.0786752460
 H        -5.7532677705       -7.0108566033       -4.4744271006
 H        -3.8129088536       -7.2534571875       -4.4194026950
 H        -6.1279975166       -3.5226387001       -8.1487677996
 H        -6.1992035054       -5.1428514887       -7.5025545410
 H        -2.8631471916       -3.3322512019       -5.3138965089
 H        -2.6947568445       -3.5887768634       -7.0279094518
 H        -2.1561231974       -4.8360187343       -5.9557960236
 H        -3.4137270550       -6.6080149628       -6.7176597675
 H        -5.2151851296       -6.6503853719       -6.7724176312
 H        -4.1738011656       -5.8195483435       -8.0307283138
 H        -7.9535093044       -2.6665425610       -6.4955093248
 H        -8.6421638910       -3.8784939183       -7.5521179395
 H        -9.1818627358       -5.0670930149       -1.7476434836
 H        -7.6790575478       -4.9349266888       -2.8534636163
 H       -11.3060088375       -4.2935085678       -6.1300497195
 H       -10.3482285731       -2.8440883708       -5.9794702518
 H       -11.4872324485       -3.2051443997       -4.7047999832
 H       -10.8518630814       -5.3619330997       -3.1847304171
 H       -10.7300798800       -6.1930760498       -4.7900538718
 H        -9.3503444286       -6.3656370535       -3.6673499948
 H        -7.6837037537       -3.6923351119       -0.1396402070
 H        -8.8276681953       -2.8098584422       -1.2248875448
 H        -4.9562383086        0.8101711349       -0.5903016482
 H        -3.5244902019        0.0445465980        0.2403136313
 H        -6.7620619925       -0.1322351061       -0.2862022925
 H        -5.9762225428       -0.5436977196        1.1698160477
 H        -7.2735571942       -1.5955929318        0.8195817329
 H        -4.4884286102       -3.7558269106       -0.3642342020
 H        -4.4472200737       -2.7518934119        1.0527389102
 H        -5.9595650980       -3.7159466963        0.6362466554
 H        -2.9578897374        1.9207828538       -1.3984227795
 H        -2.1039273896        0.4619209722       -1.7667838410
 H        -0.2853539241        0.4947057782       -6.4888790946
 H         0.0484461567        1.6304844216       -5.2740508011
 H        -3.8202057174        2.9052564044       -5.1415456224
 H        -3.9995191279        1.2443901949       -5.9730432167
 H        -2.6633931015        2.4003764724       -6.1727148370
 H        -1.1114541677        3.1660660313       -4.1920618362
 H        -2.4863020292        3.1676262543       -3.0524767121
 H        -1.0448613639        2.1675348907       -2.8807057967
 H         1.5550077309       -0.5890157827       -5.5452072111
 H         0.2177127609       -1.3944328538       -4.8834488400
 H         3.1913626694        1.0310545898       -0.4759548938
 H         1.5425140737        0.6099079722       -0.6143759355
 H         3.5817121961       -0.8057707391       -5.1009821542
 H         3.1601464734       -2.1156159186       -4.0096489454
 H         4.5437080603       -1.3382516485       -3.7609408797
 H         4.4183600348        1.0964075469       -3.3303810168
 H         2.8432224943        1.7815348939       -3.9602842525
 H         3.2953275804        1.8171233141       -2.2800484868
 H         1.8903327492       -0.2184578352        1.4613962828
 H         2.5145721233       -1.6192241974        0.7447262181
 H         3.8883646039        1.0012121540        5.8000844894
 H         5.1659617541       -0.2858650864        5.3410384123
 H         4.0178638137       -2.8009199763        2.3041990631
 H         2.8134232007       -1.8546771808        3.1760762107
 H         4.2903244358       -2.2155124115        4.1033782308
 H         6.5832294117        0.0495186411        2.3732312716
 H         6.5869820526       -1.1764818935        3.4378724446
 H         6.3073666425       -1.6380696962        1.9782821592
 H         5.7107681079        2.6490222445        4.6162277327
 H         6.7031254663        1.1322790881        4.4133206170
 H         6.6745679239        4.7215606933        9.0885555642
 H         7.6122207435        5.8247563186        8.1134187611
 H         8.7593237897        1.6668072461        8.3143613448
 H         7.1873211015        2.1675423924        9.0009476001
 H         8.5465518220        3.2154219513        8.9637150835
 H         8.1327681492        3.3796199951        5.0558955580
 H         9.1616614404        4.1329904080        6.0933123789
 H         9.3413577810        2.4880237519        5.7477425118
 H         4.4674464970        5.5431360763        8.4286300073
 H         5.5260203405        6.5647535632        9.4600920218
 H         2.7189434457        8.0999569660        9.0671135657
 H         2.4932175753        9.5846448184       10.0838135730
 H         2.7818984003        9.5495596076        8.2294277474
 H         7.5284436138        8.4928601926        7.8920563009
 H         7.2459144414        7.7545785189        9.3958982664
 H         7.4155413366        9.4721285689        9.4110994679
 H         4.5002192081       10.5129347476        7.2013790485
 H         6.3033044071       10.8138754180        7.3645064210
 H         5.6040887809        9.6236872570        6.2527494664
 Na       -4.4192001151       -1.6529828182       -4.2445237063
