155

 C        -4.0883349279       -7.0672283271       -4.0335792296
 C        -3.4771810146       -5.7912888277       -4.7020790153
 C        -3.6512898835       -5.3634076171       -6.2103912344
 C        -4.8927179806       -4.3304350947       -6.2544422141
 C        -6.0639280170       -4.5006888510       -7.3802786595
 C        -2.3988663591       -4.5600889477       -6.7157135236
 C        -3.8793821648       -6.6785621231       -7.1714885253
 O        -2.7293989356       -5.0987004357       -4.0159677771
 O        -4.8947655419       -3.2427893264       -5.6795113808
 C        -7.2663237892       -3.8435762166       -6.7808979139
 C        -7.8612005930       -4.5989229463       -5.4788969478
 C        -9.1618769906       -4.0940800207       -4.9412770963
 C        -8.7681026565       -3.0206332379       -3.8980183936
 C        -8.5121234379       -3.5080570440       -2.4671322927
 O        -7.2415257401       -5.5625235720       -5.0511871946
 O        -8.6362641034       -1.8717126507       -4.2063456636
 C       -10.0605124158       -3.4327477289       -6.0105950125
 C        -9.9886264670       -5.2991823512       -4.3171975260
 C        -7.8770667684       -2.3902804605       -1.6651901614
 C        -6.3429014842       -2.5562142559       -1.8378294152
 C        -5.5211723481       -1.9446966150       -0.6525195257
 C        -4.4095273661       -1.0411178541       -1.2387571024
 C        -4.4161479077        0.5076266671       -0.9408986231
 C        -6.4236573199       -1.3304500327        0.4255953643
 C        -4.8509758943       -3.2665428813       -0.0782928361
 O        -5.9328127573       -3.2922523049       -2.6916118154
 O        -3.6473059024       -1.4506875996       -2.0833866358
 C        -3.4858423898        1.2563172811       -1.9120066907
 C        -3.9821513672        1.0699407305       -3.3403187684
 C        -3.0453133071        1.3265546669       -4.5055913467
 C        -1.9570991831        0.0921548502       -4.6885812241
 C        -0.5240239969        0.3879435680       -5.2589283630
 O        -5.0889923093        0.6456864728       -3.6395954882
 O        -2.2003126038       -1.0648831171       -4.5423271859
 C        -3.8358576358        1.4489000435       -5.8385671921
 C        -2.2553075610        2.6733948126       -4.3684556865
 C         0.6097710332       -0.1832943635       -4.3633802557
 C         0.8507886133        0.6896568946       -3.0869861620
 C         2.3236910364        0.9966039992       -2.6534806472
 C         2.4027081671        0.2334856925       -1.2294135492
 C         3.4193680515        0.6622748591       -0.1663732764
 C         3.5447917383        0.5108452698       -3.5297149915
 C         2.4311747778        2.5550482879       -2.4605086988
 O         0.0017469528        1.3711845372       -2.5613967592
 O         1.6618538027       -0.7549594514       -1.2249165377
 C         3.4051863140       -0.2082707041        1.1004829643
 C         4.7965167099       -0.3136622081        1.8501432247
 C         4.7882452033       -1.3437915724        3.0672777440
 C         4.1086042853       -0.5343680478        4.2845296863
 C         5.0271049623        0.1161967521        5.3773011661
 O         5.7509576878        0.3389148961        1.5232685224
 O         2.8936675040       -0.4549267083        4.2885485003
 C         4.0515836579       -2.6954095913        2.8728226018
 C         6.3438612869       -1.6200952651        3.4316669599
 C         5.7546294865        1.3534516759        4.9584694293
 C         6.1853143182        2.0361132205        6.2549328447
 C         6.6306761228        3.5977950848        6.2143250502
 C         5.3450507737        4.5053472448        6.3455853946
 C         4.8551070079        4.7659062904        7.8683555374
 C         7.6863420711        3.7215194302        7.3861913990
 C         7.3249225124        4.0027170249        4.9049313115
 O         6.1147363020        1.4591565440        7.3328430326
 O         4.5555244308        4.8615661267        5.4951905599
 C         4.3032790425        6.2416811482        8.0747592161
 C         5.3686630365        7.2454755204        7.8196953002
 C         5.3707448810        8.4684505371        8.8797918291
 C         3.8729344564        8.9988108387        9.2560143292
 C         3.3745954660       10.3654365231        8.7897447938
 O         6.3404841754        7.0499981555        7.1240870591
 O         3.2056732163        8.3903307106       10.0650779055
 C         6.0621705894        7.7380692323       10.0133761584
 C         6.2815375380        9.6734376220        8.4821642246
 H        -3.6599816711       -7.1841883857       -3.1308366971
 H        -5.1446535638       -7.0823147515       -4.0868832766
 H        -3.7623629283       -7.9588098258       -4.6472497962
 H        -5.7150226026       -3.9705062223       -8.2377378087
 H        -6.2118581042       -5.5811467766       -7.6833468561
 H        -2.3780191289       -3.6479986296       -6.1160973871
 H        -2.5651512340       -4.1848146356       -7.7281507003
 H        -1.5416346532       -5.1259156332       -6.7158862214
 H        -3.1022058479       -7.4152294309       -6.7635156633
 H        -4.8725654422       -7.2230960953       -7.0237481349
 H        -3.7500914272       -6.4225417571       -8.2003748986
 H        -7.1144498701       -2.7093626029       -6.5435190789
 H        -8.1074053215       -3.8841680178       -7.4634442571
 H        -9.4348146300       -3.7225216651       -1.8934779739
 H        -8.0145233373       -4.4409129753       -2.4505623458
 H       -10.2725861919       -4.1043239839       -6.8378464913
 H        -9.8066823466       -2.5034551152       -6.4778498599
 H       -10.9508718192       -3.2269450516       -5.3976086657
 H       -10.6362928844       -4.8676197619       -3.5353630791
 H       -10.6267886786       -5.8441072142       -5.0441047470
 H        -9.3388599347       -6.0791061770       -3.9055918065
 H        -8.2476931484       -2.4657926949       -0.6414134612
 H        -8.2198649620       -1.4234664068       -1.9963091207
 H        -5.4277401849        0.9278184386       -0.9224256485
 H        -4.1017492478        0.6217070078        0.1495434204
 H        -7.1200403746       -0.5816682719        0.0875499820
 H        -5.8555999546       -0.6298926136        1.0932344711
 H        -6.8396862190       -2.1315815175        0.9774036968
 H        -4.1000693945       -3.5182890490       -0.8981635334
 H        -4.2607054709       -3.1243719116        0.8394531893
 H        -5.6365731465       -4.0023229642       -0.0053018952
 H        -3.5398767425        2.3597726529       -1.7725861027
 H        -2.4602875151        0.9107881775       -1.8972659025
 H        -0.5236013664       -0.2440113186       -6.1491251155
 H        -0.3392738090        1.3516360711       -5.7022905324
 H        -4.7875493595        0.8927228595       -5.6049189943
 H        -3.3841946191        0.9579851461       -6.6359243527
 H        -3.8789187507        2.5391308341       -6.1038198196
 H        -1.7599825967        2.8647189638       -5.3008459863
 H        -2.9574315578        3.4032852928       -4.1517015243
 H        -1.4247050315        2.6285388230       -3.6615094989
 H         1.5431172336       -0.1747806482       -4.9137912302
 H         0.3998296976       -1.2286779953       -4.1607894370
 H         4.3418365118        0.7630441963       -0.6779414232
 H         3.0721752390        1.6101816307        0.1722085579
 H         3.4271069836        0.9974607784       -4.5340381050
 H         3.6925614445       -0.6549446362       -3.5041402696
 H         4.5036743889        0.9176812413       -3.2807180756
 H         3.3126511297        2.8450220071       -1.9859053838
 H         2.4172778356        2.9928178001       -3.4610031007
 H         1.5634784442        2.9303846285       -1.9248225672
 H         2.6401314911       -0.0159225059        1.8405483714
 H         3.3087135790       -1.2558733358        0.7044059678
 H         4.4267865406        0.3343574037        6.2486176450
 H         5.6218156869       -0.5960059733        5.9289152112
 H         4.4990501777       -3.2687470148        2.0544695108
 H         3.0360250127       -2.5303909839        2.5216921858
 H         4.0085424363       -3.1525310029        3.8693770740
 H         6.9347718463       -0.7483866357        3.2859850063
 H         6.4422133993       -1.9473833520        4.4828549211
 H         6.6811652498       -2.4352586641        2.8635976844
 H         5.1532102160        1.9480662138        4.2092002056
 H         6.6454546880        1.0755240472        4.3446695003
 H         4.1738944350        4.0147562375        8.2725336475
 H         5.6848073076        4.6922966622        8.6334727779
 H         8.4582661025        2.9998631464        7.1444134953
 H         7.2757809372        3.3329771682        8.2606587140
 H         8.1996503640        4.7503451691        7.3523066477
 H         6.6783548330        4.0794279760        4.1125960946
 H         7.7089020851        4.9995328590        5.0772588854
 H         8.1197366330        3.3626706318        4.7380041799
 H         3.4042675907        6.4398563065        7.5033232309
 H         4.0930996952        6.3253783796        9.0805839264
 H         4.0740779629       11.1434293716        9.1452222493
 H         3.3228412236       10.3357870833        7.7435823120
 H         2.3809698998       10.5104616287        9.2264227916
 H         7.1036257807        7.2938535948        9.8040691164
 H         5.6036181656        6.7550641142       10.2151632387
 H         5.9974374458        8.2351105460       10.9971065409
 H         5.7679928301       10.6265570709        8.4644496954
 H         7.0837271244        9.8009201441        9.1932983249
 H         6.7793250558        9.5339526781        7.4891690789
 Na       -3.8717165470       -3.1370166458       -3.5974466591
