155

 C        -4.1708634659       -7.2618072359       -4.2819085482
 C        -3.6052176891       -5.8385359836       -4.4515180650
 C        -3.3173755171       -5.3088043345       -6.0211700234
 C        -4.3899999246       -4.2949981471       -6.4107978680
 C        -5.4124720097       -4.5296911340       -7.4490363711
 C        -1.9967602258       -4.5370969810       -5.9486976123
 C        -3.0884194216       -6.3695924321       -7.0461100473
 O        -3.3962091231       -5.1757096422       -3.4514450398
 O        -4.3282444100       -3.2239039206       -5.7775548044
 C        -6.7552735848       -3.7833734380       -7.1104413613
 C        -7.3387423630       -4.3884231338       -5.8546419206
 C        -8.7225916231       -3.9396013349       -5.2948741660
 C        -8.2628539738       -2.9082913622       -4.0780066927
 C        -7.9817339581       -3.6085345756       -2.7432864723
 O        -6.5258763907       -5.0466316806       -5.2686369986
 O        -8.1413809114       -1.7368863088       -4.3125332620
 C        -9.4923843501       -2.9861650603       -6.3304558453
 C        -9.5115839973       -5.1013026410       -4.7351962076
 C        -7.4913465510       -2.5930052113       -1.6820795602
 C        -5.8988186465       -2.6220597694       -1.5428807706
 C        -5.1005889019       -1.8115799963       -0.4316620042
 C        -4.0308672806       -1.0591295284       -1.2606459466
 C        -4.0221196496        0.5476295702       -1.1774871100
 C        -5.9671632299       -0.8468909227        0.2963608294
 C        -4.3001573665       -2.8569168805        0.3959381569
 O        -5.3026750772       -3.3235535473       -2.3291745376
 O        -3.0589667905       -1.6990570228       -1.6167977263
 C        -3.4898999429        1.0529381163       -2.4533607542
 C        -3.8133862675        0.2672581368       -3.7023408988
 C        -3.0722622155        0.5325012199       -5.0067090487
 C        -1.6227172787       -0.1338280784       -4.6636742458
 C        -0.3198313659        0.8411185119       -4.6632667395
 O        -4.7211709607       -0.5649118315       -3.6247153860
 O        -1.5566355291       -1.3059013268       -4.5159909153
 C        -3.5945004494       -0.2691328632       -6.2555660320
 C        -3.2413894692        2.0475012568       -5.2851796780
 C         0.7016372171        0.5859483756       -3.5341269940
 C         0.4878678419        1.6012788351       -2.4214278111
 C         1.6174010049        1.7243999817       -1.3691165996
 C         1.8035702602        0.3193362438       -0.6060375322
 C         3.3195475145        0.1206234240       -0.1278529114
 C         2.8289902406        2.1726033393       -2.2118584506
 C         1.3078776956        2.9635587487       -0.3634540922
 O        -0.4901965042        2.3428547924       -2.4561789225
 O         0.7739276746       -0.3656219112       -0.5800004688
 C         3.4451338085       -1.0141772569        0.8553337262
 C         4.7981743788       -0.6896772887        1.7134077010
 C         5.0992537094       -1.5522448004        3.0140144699
 C         4.0717916252       -1.0299701749        4.2082183016
 C         4.6229386516        0.0082974146        5.2360061762
 O         5.6182659281        0.1077277331        1.3311738864
 O         2.9612850890       -1.4693525472        4.2820368162
 C         4.6777716463       -3.0580967522        2.7476402979
 C         6.5780270715       -1.4911800838        3.3925069820
 C         4.5611336125        1.4380298744        4.6597649711
 C         5.3203443420        2.4466520455        5.5438839680
 C         5.6281276355        3.9220090460        5.0950029630
 C         4.6758834806        4.9139628036        5.7035953067
 C         4.3547382155        4.6492265540        7.2114577109
 C         7.0291952717        4.4390549290        5.6574161573
 C         5.6585901385        3.9690079213        3.5296686612
 O         5.6561185224        2.1360281972        6.6641221266
 O         4.2618688891        5.9041831420        5.0935834865
 C         4.0842420728        5.8628944142        8.1446664533
 C         5.3073690698        6.6346731341        8.5808976892
 C         4.9627213002        7.9182707493        9.5510961148
 C         3.9468004628        8.9213028530        8.9913028396
 C         4.5904817721        9.9469253810        7.9535394558
 O         6.4033363445        6.3692106378        8.2175222381
 O         2.7783186921        9.0283279440        9.2625117377
 C         4.2784569406        7.2838764890       10.8324957094
 C         6.2540222296        8.6708482856        9.9763116525
 H        -4.8670199602       -7.4163973925       -3.3736587746
 H        -4.8907540192       -7.4369179926       -5.1579070678
 H        -3.4074269241       -8.0349678701       -4.3471391230
 H        -5.0580378266       -4.1135526300       -8.3870868694
 H        -5.6870874955       -5.5929297777       -7.7760704701
 H        -1.9699091283       -3.7925069960       -5.1880588029
 H        -1.6455980159       -4.1361118952       -6.8734073435
 H        -1.1929231020       -5.2870283512       -5.6561400581
 H        -2.3096981680       -6.9937918732       -6.8490492196
 H        -3.9516677858       -6.8858722117       -7.2766697320
 H        -2.8691234595       -5.8453587839       -7.9915394948
 H        -6.6186164500       -2.6875419996       -7.0686405925
 H        -7.3672106907       -3.9010372269       -7.9508579850
 H        -8.9098450179       -4.0126852309       -2.2699077618
 H        -7.2416693835       -4.4092415867       -2.9268251974
 H        -9.8910967285       -3.3810433046       -7.2990377067
 H        -9.0226028571       -2.0105534174       -6.3548723930
 H       -10.4712616708       -2.7860437194       -5.8462154216
 H       -10.3692230404       -4.7738606007       -4.2298279226
 H        -9.8944504101       -5.7588486410       -5.5330984177
 H        -9.0123792957       -5.8219900114       -4.1459783837
 H        -7.9216808486       -2.7806130227       -0.6939157873
 H        -7.6583965598       -1.6126994806       -2.1462994642
 H        -4.9695336094        0.8977325617       -0.9585819738
 H        -3.3408103532        0.8286474022       -0.3531363269
 H        -6.4093550136       -0.0998213203       -0.3266456131
 H        -5.5805572163       -0.4414745406        1.2117489006
 H        -6.7975568513       -1.5045427981        0.7641173781
 H        -3.7375086992       -3.3956292184       -0.2886307256
 H        -3.6706456227       -2.2373442381        1.0759007707
 H        -4.9516057785       -3.4198851722        1.0487017240
 H        -3.9124374482        2.0743996928       -2.5666454287
 H        -2.4312546476        1.2488815414       -2.3304747035
 H         0.1224966194        0.4707808561       -5.6172169006
 H        -0.6355626824        1.8888001371       -4.7551332771
 H        -4.6010199743       -0.6513868894       -6.0784004403
 H        -2.9354605887       -1.1700985831       -6.4562763766
 H        -3.6538749316        0.3936233875       -7.0527781411
 H        -2.6767683905        2.3492047227       -6.1304483826
 H        -4.2758435865        2.3841081698       -5.2903413358
 H        -2.8018931752        2.6620818674       -4.4885544219
 H         1.7139313509        0.6463395645       -3.9987501914
 H         0.5519051524       -0.4598849566       -3.1864305079
 H         3.9571472363       -0.0482920152       -1.0402847754
 H         3.6623037033        1.1412696004        0.2382087941
 H         2.3245170262        3.0002898813       -2.6919054134
 H         3.1959741130        1.5099444174       -2.8935136234
 H         3.6423625873        2.4208510895       -1.4838198321
 H         1.1547125400        2.6117113477        0.6784794864
 H         2.1647046733        3.6057678131       -0.4175445203
 H         0.4458729318        3.5308196699       -0.7321803220
 H         2.6251283401       -1.0614608551        1.5677755818
 H         3.4888032762       -1.9733863773        0.3819713966
 H         3.9346752289       -0.0202260285        6.0247996968
 H         5.7009478261       -0.1689853408        5.4609604757
 H         5.3773873106       -3.4334538927        1.9546343566
 H         3.6513740898       -3.2481286984        2.4391923267
 H         4.8312575562       -3.7723017509        3.6080450172
 H         6.8895211898       -0.4516041233        3.2729323209
 H         6.6445482456       -1.9044626531        4.3786269229
 H         7.0855070474       -2.3358065312        2.8422503032
 H         3.5153203084        1.6681371730        4.5269684333
 H         4.9946164750        1.2549127491        3.6895217834
 H         3.4031725817        4.1536185608        7.1109156218
 H         5.1508335399        4.0480878453        7.6367888573
 H         7.7713948780        3.8763345928        5.0542458175
 H         6.9535623359        4.1638989431        6.7436033016
 H         7.1046227543        5.4790706663        5.5270743943
 H         4.5894555014        3.9018517149        3.1581445228
 H         5.9808814472        4.8856023382        3.0073664217
 H         6.0719397197        3.0517836690        3.0255511184
 H         3.3798001141        6.5312095365        7.6559121038
 H         3.5200822189        5.5182173854        9.1083414929
 H         5.5749852553       10.3707280445        8.2194036903
 H         4.5767954970        9.4467028902        6.9562286461
 H         3.8609091158       10.7130357910        7.8824350524
 H         4.6852578747        6.3200159782       11.1062178986
 H         3.1465062563        7.3631063768       10.7288285360
 H         4.5675268386        7.8891456348       11.7441931571
 H         6.0584437848        9.7561658234        9.9242719144
 H         6.5994235329        8.3028580090       10.9554759220
 H         6.9748224994        8.4568525558        9.2343702210
 Na       -3.3704828187       -2.5497568937       -3.6492258306
