155

 C        -4.0920789037       -7.1036326593       -4.1772695943
 C        -3.3477691768       -5.8059800740       -4.4323241342
 C        -3.0095119406       -5.2782724952       -5.9567885087
 C        -4.2739032945       -4.3045205454       -6.2803874898
 C        -5.1483054922       -4.5100207046       -7.5319072329
 C        -1.6811652513       -4.5811398832       -5.9621056022
 C        -2.9324228111       -6.4582136962       -6.9989859182
 O        -3.0416392897       -5.1181315526       -3.4758640268
 O        -4.3850554924       -3.2685166319       -5.5959588275
 C        -6.6036463251       -3.9513783785       -7.2387978633
 C        -7.2232248168       -4.3897211444       -5.9272176247
 C        -8.4260536370       -3.7445237488       -5.2950362235
 C        -8.1040645248       -2.9161702180       -3.9997878021
 C        -8.0321439036       -3.6928058747       -2.6021787675
 O        -6.6873942955       -5.2969907607       -5.3900588007
 O        -8.1294406938       -1.7134348098       -4.0892211683
 C        -9.0398522613       -2.7665523256       -6.2830217763
 C        -9.4207942830       -4.8787209165       -4.9615212748
 C        -7.4941428898       -2.9654898966       -1.3361519410
 C        -5.8999137939       -2.7847758588       -1.5577574400
 C        -5.0200784172       -1.8719253048       -0.4024955912
 C        -3.9981961648       -1.1050746611       -1.1768824718
 C        -4.3033387737        0.3931326899       -1.5156914589
 C        -5.9816752096       -1.0069985418        0.5045676344
 C        -4.2944276546       -2.9083288452        0.5328789077
 O        -5.3303923062       -3.2624592960       -2.4895249626
 O        -2.9792440221       -1.6867269957       -1.4286407479
 C        -3.4751473150        1.0879244536       -2.5476824706
 C        -3.7789489702        0.4272697583       -3.8866124688
 C        -2.7420645286        0.5127753199       -5.1024949310
 C        -1.4363310328       -0.1634876380       -4.3860149603
 C        -0.1431109078        0.7699078937       -4.4472212969
 O        -4.7321062158       -0.3119501446       -4.0254120308
 O        -1.5220551455       -1.2298262346       -3.8854303680
 C        -3.2004873129       -0.4376143306       -6.2301102394
 C        -2.5098028276        1.9233538340       -5.7692834226
 C         0.7826377979        0.6581523063       -3.2137189495
 C         0.4431020645        1.7558560122       -2.1409528651
 C         1.4907504030        1.9702677440       -1.0247405362
 C         1.9617820502        0.5287578379       -0.7293085882
 C         3.3245293107        0.3450570365       -0.2308480955
 C         2.5258768548        3.1035870061       -1.6816647787
 C         0.7801311489        2.4976200733        0.2593487085
 O        -0.5377021597        2.4323190540       -2.3866469380
 O         1.1701720732       -0.4050975720       -0.7222772780
 C         3.3764960342       -0.6742926372        0.9437619940
 C         4.6367922185       -0.6002600892        1.7882568743
 C         4.8328641513       -1.6375608420        2.9210624659
 C         3.9753135515       -1.0047794902        4.1324091635
 C         4.3667817099        0.2712714142        4.8548872112
 O         5.4170848082        0.2773160821        1.5676057684
 O         2.9250762039       -1.5070902263        4.4436062381
 C         4.3770622348       -3.0638751183        2.6240196768
 C         6.3733440941       -1.6294602245        3.2032820389
 C         4.5585794830        1.5482670032        4.0805088718
 C         5.1326767042        2.5784290401        5.0374591371
 C         5.4011482359        4.1538785981        4.7064127510
 C         4.5321019123        4.9602623574        5.8298171246
 C         4.4187054096        4.5145564401        7.3091352395
 C         6.9189325058        4.2803066721        5.0919894023
 C         4.9791613875        4.6100881576        3.3236336804
 O         5.4976841950        2.2433477396        6.1263195285
 O         4.0900031911        6.0344458391        5.4706748869
 C         3.7385129622        5.6442266659        8.1438235685
 C         4.9234663798        6.4724243565        8.7133983622
 C         4.6374277269        7.5968656072        9.7298874896
 C         4.2019102376        8.6859350241        8.7078728419
 C         5.0491103608        8.8066972670        7.4880583526
 O         5.9856594086        6.3081249522        8.2064170745
 O         3.2433926176        9.4322540600        8.9955044374
 C         3.5561045273        7.3070795522       10.7329630610
 C         5.9836171626        8.0818181758       10.4078365342
 H        -4.2052331038       -7.3852130018       -3.1952440803
 H        -5.1772193599       -6.9089974024       -4.5263956603
 H        -3.7289602044       -7.8998956341       -4.9069995691
 H        -4.7061429476       -3.7301666605       -8.1740646730
 H        -5.1468427651       -5.5269765116       -8.0413648992
 H        -1.6725400111       -3.7947258056       -5.2532286285
 H        -1.3465144080       -4.1421100292       -6.8486392516
 H        -0.8937550034       -5.3563117961       -5.7163080199
 H        -2.3700981008       -7.3602649026       -6.7893612474
 H        -3.9467258030       -6.7913238596       -7.3232166271
 H        -2.4624277335       -6.0387564238       -7.9088200685
 H        -6.3155934980       -2.9374755479       -7.3396517775
 H        -7.2604738338       -4.1056016903       -8.0443633836
 H        -9.0885745670       -3.9861946376       -2.3776343491
 H        -7.5043249720       -4.6619316556       -2.7405812709
 H        -9.0602504133       -3.1947696901       -7.2890204339
 H        -8.3402608933       -1.8970013032       -6.3568791886
 H        -9.9559643031       -2.3758598134       -5.9027696432
 H       -10.4596659761       -4.6247791077       -4.7757489535
 H        -9.5181510948       -5.4890042690       -5.8572022538
 H        -9.1457562169       -5.6651783361       -4.2472988503
 H        -7.5782460238       -3.4743928996       -0.4143056880
 H        -7.8609572562       -1.9770042427       -1.2356841996
 H        -5.3330526378        0.5014126076       -1.7074993088
 H        -4.1037800811        0.8585156612       -0.5322357252
 H        -6.4753138187       -0.2630786009       -0.0972294626
 H        -5.5823661134       -0.3398317235        1.1877225270
 H        -6.7592363422       -1.7453230677        0.7904561558
 H        -3.3743815542       -3.0790716840        0.0704662021
 H        -4.0868161774       -2.3686150879        1.4817761301
 H        -4.9145125380       -3.8229942682        0.6053874414
 H        -3.7486591486        2.1635209257       -2.4480913085
 H        -2.4100707628        1.1456805950       -2.3234511252
 H         0.3575167526        0.4084604924       -5.3606352351
 H        -0.4691673615        1.8196543313       -4.5078959624
 H        -3.8482793975        0.0564151269       -6.8774138041
 H        -3.9276651870       -1.2141004210       -5.8329272591
 H        -2.3513757975       -0.8701291919       -6.6868812638
 H        -1.7545977463        1.7599355614       -6.5088375347
 H        -3.3824626967        2.3618747263       -6.3015748097
 H        -2.0760119736        2.6893115019       -5.1827264478
 H         1.8061494658        0.8506790203       -3.6415469448
 H         0.8040263386       -0.3832654169       -2.7968203783
 H         3.7232744745       -0.0310162125       -1.1672800341
 H         3.7956205083        1.2830512320        0.1011177269
 H         1.8172867849        3.8231328742       -1.9901388721
 H         3.1319426839        2.6075520463       -2.4232625948
 H         3.0684157606        3.6289181024       -0.8569062750
 H         0.9636856270        1.8088755106        1.0470439412
 H         0.9983526242        3.4537611435        0.5459873563
 H        -0.3133161693        2.4168749600       -0.0220584330
 H         2.6465077931       -0.5394239444        1.7327038444
 H         3.2434860190       -1.6621910193        0.6034730922
 H         3.7477586848        0.5544871501        5.7006582151
 H         5.4053936190        0.0618939183        5.3226165562
 H         4.6005003837       -3.3789726746        1.6156758880
 H         3.2678739383       -3.0832757416        2.4547372016
 H         4.6528071515       -3.7943325752        3.3816600897
 H         6.6618264987       -0.6384055203        3.4965624534
 H         6.4279275858       -2.3611730984        3.9470309850
 H         7.0171996837       -2.0053197470        2.3784128490
 H         3.5893667351        1.9076447253        3.7609324372
 H         5.2928416314        1.3704209543        3.3108943776
 H         3.8158281276        3.6328183778        7.3203064692
 H         5.4091924527        4.3466797380        7.7021017534
 H         7.4618127668        3.4957353914        4.5142507128
 H         7.0809077466        4.0359203255        6.1760357620
 H         7.2131743831        5.1799201938        4.6804380311
 H         4.0560738250        4.2602234717        3.0474077875
 H         5.0033928793        5.6868898887        3.2081322179
 H         5.6325412074        4.2896847565        2.5815621372
 H         3.0593032086        6.2979808025        7.6185073071
 H         3.0309362616        5.2426443145        8.9896148030
 H         6.0650388664        8.8986288125        7.7835641141
 H         4.8399124491        7.9298220313        6.8246168904
 H         4.7215521642        9.7214602670        7.0106608801
 H         3.8804225245        6.4009924798       11.3219865794
 H         2.6680481050        6.9011442684       10.2092106442
 H         3.3551982033        8.2833933901       11.3005462955
 H         5.8164927354        7.9323159441       11.4827593984
 H         6.7492715494        7.3071938586       10.1670933100
 H         6.2927445047        9.0730587011       10.1715795011
 Na       -3.1655165558       -2.6877069795       -3.4428584687
