155

 C        -3.7960463414       -7.1930744508       -4.1756633246
 C        -3.1692531049       -5.7866416318       -4.4494531618
 C        -2.9451659927       -5.3182990822       -5.9337165902
 C        -4.1168126241       -4.3134650746       -6.1907712544
 C        -5.1389897925       -4.6309371850       -7.3291249260
 C        -1.6258154453       -4.4989141665       -5.9825290832
 C        -2.9191956709       -6.5849399308       -6.8889980079
 O        -2.7280467393       -5.1368505849       -3.5053696788
 O        -4.1163079879       -3.3164735124       -5.5212817348
 C        -6.4539656462       -3.8710333427       -7.1022884676
 C        -7.2470535387       -4.3378707125       -5.9407568898
 C        -8.5137113602       -3.6710552194       -5.3209911990
 C        -8.0587600936       -2.9815261503       -3.8826425452
 C        -7.9954420698       -3.8832279790       -2.6925466283
 O        -6.7253428558       -5.2905789015       -5.3466986549
 O        -7.8676212227       -1.7995584480       -3.8554005418
 C        -9.1282597462       -2.6329051125       -6.3061829630
 C        -9.5949292551       -4.7239477492       -5.1878760373
 C        -7.5332840600       -3.0999455806       -1.4555647204
 C        -5.8360930286       -2.7189598655       -1.5122290234
 C        -5.1087221543       -1.9291721300       -0.2914263851
 C        -4.1963874451       -0.9699030526       -1.1261039930
 C        -4.6426563609        0.4053595435       -1.5761702940
 C        -6.1671142429       -1.1522954476        0.6161851008
 C        -4.3258083069       -2.9431591177        0.6244895216
 O        -5.2580003452       -2.9206097255       -2.5568035876
 O        -3.0462506331       -1.3117526017       -1.4043856563
 C        -3.6418277325        0.9426983716       -2.5827866107
 C        -3.7583220866        0.2586138662       -3.9666491904
 C        -2.5830049564        0.4583093878       -5.0412135856
 C        -1.2192995681       -0.0838127759       -4.6239702134
 C         0.1394596459        0.7867389678       -4.6752997115
 O        -4.8045325310       -0.2505111038       -4.3066703639
 O        -1.1626302038       -1.2235755933       -4.0802903397
 C        -2.9048553653       -0.4656964116       -6.2690876199
 C        -2.5007331070        1.9158759840       -5.4699542895
 C         0.7945685098        0.7197569195       -3.2561617982
 C         0.3283450799        1.7200278384       -2.2518975259
 C         1.3341833899        2.0568867360       -0.9377025338
 C         1.9416312179        0.7060169330       -0.5439098510
 C         3.3985639630        0.6204988749       -0.1020246295
 C         2.3365058180        3.2810809044       -1.2010218142
 C         0.3521250072        2.4497729017        0.3336122003
 O        -0.6867611089        2.3780852324       -2.3907315268
 O         1.3898123331       -0.3875077560       -0.7254768317
 C         3.4301502757       -0.5937400073        0.8992894188
 C         4.7287548401       -0.6327935257        1.7621183346
 C         4.7846424465       -1.6345222703        2.9693213555
 C         3.8659716410       -1.0047490598        4.0250509719
 C         4.3475982760        0.2083614435        4.8268133791
 O         5.5532803321        0.2624307941        1.5444398706
 O         2.7941013506       -1.4942127025        4.2629123943
 C         4.2275818094       -3.0408102370        2.5656290744
 C         6.3348771048       -1.7454899145        3.4597149653
 C         4.6597173349        1.5681767099        3.9621256975
 C         5.1911632826        2.6373038809        5.0149946641
 C         5.2136003099        4.1580621504        4.6505932310
 C         4.4242081787        4.9898183863        5.8072289386
 C         4.1578907618        4.3087313261        7.1870092687
 C         6.7488461648        4.7210979381        4.7434432994
 C         4.6406595684        4.5285423628        3.3303998087
 O         5.5736894374        2.1968413618        6.1091258963
 O         4.0674621616        6.1251240845        5.5829182936
 C         3.7400783959        5.2423929501        8.3215420774
 C         4.8404653102        6.1857421778        8.8032940045
 C         4.4635442311        7.5619836722        9.6072608359
 C         4.2072675195        8.7245286938        8.5877750959
 C         5.1734621400        8.7165605087        7.3156535179
 O         6.0313837055        5.9752600839        8.5205026401
 O         3.5702489292        9.6657079230        8.7811233846
 C         3.2241861798        7.4093534463       10.5817301676
 C         5.6912976416        7.8858222896       10.5107636441
 H        -3.6348086548       -7.3558930395       -3.0238745438
 H        -4.8477393130       -7.3199669385       -4.3145544047
 H        -3.3192258163       -7.9023732421       -4.7623067426
 H        -4.6164925934       -4.2472347733       -8.1915623005
 H        -5.3595726408       -5.6516967345       -7.4283763780
 H        -1.7556336879       -3.4875155715       -5.5607418970
 H        -1.3312905472       -4.2369579734       -7.0361191465
 H        -0.8045541468       -4.9908566886       -5.5641992334
 H        -1.9527326812       -6.9752305247       -6.7056228911
 H        -3.5659223966       -7.3408640966       -6.6838920858
 H        -2.8854622968       -6.4082909493       -7.9713757210
 H        -5.9938877014       -2.8595785054       -6.8430968435
 H        -7.0098382599       -3.7263952467       -8.0800660830
 H        -8.9403948398       -4.3988166114       -2.5128702204
 H        -7.3201544792       -4.7182289567       -2.8864939026
 H        -9.1751545624       -3.1571862648       -7.2819847964
 H        -8.5311056041       -1.7802524473       -6.5299108876
 H       -10.0823485457       -2.2857660652       -5.8341970881
 H       -10.4499825624       -4.3808318192       -4.6515238600
 H       -10.0315720703       -5.0974239689       -6.1350777817
 H        -9.2880353243       -5.5580493982       -4.6092799826
 H        -7.7094439194       -3.6457479727       -0.4738942742
 H        -8.0862059366       -2.0980815677       -1.3898182356
 H        -5.6381785189        0.3877629673       -2.0895468607
 H        -4.7711606448        0.9018731539       -0.6258418885
 H        -6.8998716825       -0.5778476504        0.0675429005
 H        -5.6198647621       -0.3485828582        1.1261178698
 H        -6.7556157905       -1.9132620151        1.1356103706
 H        -3.8452205040       -3.6359795303       -0.0955815359
 H        -3.5810392315       -2.4822545531        1.2416699967
 H        -5.0882628562       -3.5185630544        1.0377566589
 H        -3.8946160220        1.9748999725       -2.7911651673
 H        -2.6109415005        1.0822275613       -2.2446423260
 H         0.8498766261        0.2747937313       -5.3331959448
 H        -0.1384772514        1.7942278447       -4.9435788114
 H        -3.4769201061        0.0686663046       -7.0681107593
 H        -3.5700369982       -1.2601097006       -6.0571007466
 H        -1.9460737651       -0.8614996643       -6.5854842810
 H        -1.7407966898        2.2173292741       -6.2218614443
 H        -3.4030721506        2.1832663005       -5.9672396667
 H        -2.3125300460        2.5676253908       -4.5582540861
 H         1.8683612073        0.7810837511       -3.3849014363
 H         0.6522450707       -0.3057362308       -2.9238670696
 H         3.9536146972        0.2984126482       -1.0220428257
 H         3.7173099752        1.5520890274        0.3745657631
 H         1.7989466004        4.2250451481       -1.1413211407
 H         2.8310343968        3.0186209025       -2.0731539629
 H         3.0129813405        3.3461837258       -0.3628457807
 H         0.8802474517        2.1022916377        1.2670447085
 H         0.2078436752        3.5948382599        0.3874258473
 H        -0.5795890354        1.9888160207        0.2763857439
 H         2.5692466359       -0.7975663156        1.5557150381
 H         3.5792177760       -1.4674401270        0.1952925855
 H         3.6336098390        0.5485075956        5.5550544605
 H         5.1653767486        0.0301392174        5.4581029127
 H         4.5700886983       -3.5934212451        1.6888867487
 H         3.2422739817       -2.9341987591        2.2335352841
 H         4.2364543299       -3.6717014149        3.4828013275
 H         6.6344512409       -0.6736558510        3.5652754924
 H         6.4388000138       -2.3840397513        4.4053841740
 H         6.9321036887       -2.1146302208        2.6041639949
 H         3.7659264601        1.8688356934        3.4110849103
 H         5.5838677048        1.4782594390        3.3582974201
 H         3.3298786571        3.5676727033        7.0803041517
 H         5.1203721931        3.7751957186        7.4455242809
 H         7.1193839075        4.8133532579        3.7320001413
 H         7.4173002545        4.0509860783        5.2482417373
 H         6.6114838179        5.7807061215        5.0757323467
 H         3.4753156703        4.4975506864        3.2898182510
 H         4.9387972148        5.5766864157        3.1451222478
 H         5.0743186269        4.0448359315        2.3737799964
 H         2.9103548434        5.9521210506        8.0500942996
 H         3.2977052879        4.6897438089        9.0742972962
 H         6.1325346860        8.1462262324        7.5397109240
 H         4.7028017414        8.3157044881        6.4457752180
 H         5.3972733254        9.7785952239        7.1950457353
 H         3.1248177954        6.3949420149       10.8614211402
 H         2.2723551960        7.6663083812       10.1111063394
 H         3.3947986921        8.1430709696       11.3110145553
 H         5.7606620333        7.1804538450       11.3343262291
 H         6.6091379691        7.8461097433        9.9714680478
 H         5.4852683360        8.9139983349       10.8972260682
 Na       -2.9908822843       -2.7798463586       -3.4656115280
