155

 C        -0.7358145130       -6.3265607742       -3.2906150253
 C        -1.4525257097       -5.2019792312       -3.9779976653
 C        -1.7864260003       -5.4195255000       -5.5162991069
 C        -2.9730725755       -4.5024716837       -5.8507659800
 C        -4.3739544148       -5.0390323037       -5.7242451301
 C        -0.5746570739       -4.8736832020       -6.4354780974
 C        -2.0523917369       -7.0035895774       -5.7469657242
 O        -1.7617424619       -4.2206630541       -3.3556232961
 O        -2.9160941892       -3.2862857811       -6.0331170617
 C        -5.4287304621       -3.9336124673       -5.8554242857
 C        -6.8388795369       -4.5554550094       -5.8653993237
 C        -7.9590726859       -3.5435596809       -5.3177645913
 C        -7.4692622015       -3.1789803684       -3.8957601135
 C        -7.3276534945       -4.3540073881       -2.8566153622
 O        -6.9572891545       -5.7204101405       -6.1504102339
 O        -7.2262525532       -2.0345543385       -3.5423881091
 C        -8.0486814560       -2.2363324147       -6.2617236533
 C        -9.2979107767       -4.3221559627       -5.3314181986
 C        -6.5876592450       -3.9612413263       -1.5524680158
 C        -5.4112398945       -3.0205869988       -1.8207857839
 C        -5.3011614348       -1.6453968123       -0.8859004508
 C        -4.6733734091       -0.6531746128       -1.9593178594
 C        -5.4280432053        0.5154394500       -2.5346068534
 C        -6.6271664970       -1.2019183819       -0.1976673927
 C        -4.1526283965       -1.9414005832        0.2127713227
 O        -4.6074304156       -3.3397015387       -2.7193403611
 O        -3.4108646932       -0.7501729899       -2.2711114377
 C        -4.4624395296        1.3801811937       -3.2429212820
 C        -3.9423050336        0.7012976671       -4.5124161799
 C        -2.6580826941        1.2949784540       -5.2160897617
 C        -1.3910893912        0.4945888741       -4.7412903974
 C        -0.0315471884        1.1920145651       -4.5814613192
 O        -4.4593475686       -0.2816622996       -5.0325687794
 O        -1.4134203831       -0.7048704224       -4.6963380102
 C        -2.9540616369        1.2208021098       -6.7466914161
 C        -2.4790253217        2.7852338809       -4.9215144736
 C         0.6357921229        0.8041938262       -3.2656023804
 C        -0.1357369232        1.3653118251       -2.0050536164
 C         0.6782333365        1.1805958912       -0.4598457370
 C         1.4534178843       -0.1964517845       -0.3269714341
 C         2.3726278973       -0.3099759894        0.8568687240
 C         1.5524127486        2.3769660122       -0.0913071718
 C        -0.5058799858        1.0363111239        0.5366325211
 O        -1.2917052061        1.8033193808       -2.0201201159
 O         1.0360423043       -1.2174890654       -0.9001324930
 C         3.7606165165       -0.9387804950        0.4934835440
 C         4.9461837307       -0.6478152855        1.4521323784
 C         5.0846754782       -1.4592476304        2.8785809016
 C         4.2325272876       -0.7086731511        3.9307456643
 C         4.8367439162        0.2718098818        4.9936148954
 O         5.8350009460        0.0573328845        1.1845181365
 O         3.0110231260       -0.8018207992        3.8473294707
 C         4.4343035101       -2.8654353563        2.7546797939
 C         6.6186038800       -1.6054380584        3.0526410330
 C         4.0725170118        1.6264687473        4.6561117186
 C         4.7399217134        2.8697118188        5.2695684498
 C         4.1004251446        4.1969806864        4.7560023059
 C         3.3060521495        5.0566137083        5.8482302701
 C         2.8891343489        4.4496812879        7.2679428011
 C         5.2344370359        5.1149379971        4.2586930912
 C         3.0060891870        4.1058775538        3.6272760438
 O         5.7177207492        2.9043377019        6.0172017802
 O         2.9627307351        6.1631445273        5.5029548673
 C         2.4243152617        5.4722481280        8.2414713113
 C         3.5230711046        5.9333804360        9.2386940303
 C         3.6916208072        7.4419836819        9.5163252035
 C         5.0178168819        7.9704443753        8.6884183073
 C         6.3771054889        7.7127955665        9.2285211736
 O         4.2189724392        5.1295304721        9.7815799779
 O         4.9202885574        8.5431257998        7.6384614544
 C         2.5058285425        8.4040150358        9.0417653029
 C         3.8970860413        7.6198267761       10.9808678526
 H        -0.3074566013       -5.9304056539       -2.4758031591
 H        -1.3853457789       -7.1313535468       -2.9605507631
 H        -0.0868377489       -6.7851875535       -3.9881373870
 H        -4.6405012274       -5.7699760126       -6.4596065479
 H        -4.4944673549       -5.5778950250       -4.7370514571
 H        -0.0501178456       -4.0044752777       -6.0279655435
 H        -0.9444273422       -4.6304656408       -7.3901120182
 H         0.1599048997       -5.6898420856       -6.4510795901
 H        -1.0812703260       -7.4271546293       -5.8350408505
 H        -2.5596604105       -7.4402390473       -4.9665845827
 H        -2.6158383444       -7.1244053941       -6.6345208380
 H        -5.2404580822       -3.2434454537       -4.9896225143
 H        -5.1526380250       -3.3266829652       -6.6999177577
 H        -8.3496173469       -4.7702827180       -2.6296708364
 H        -6.7738560025       -5.0899590772       -3.3719683745
 H        -8.1502976232       -2.5456646426       -7.3001359119
 H        -6.9627656348       -1.8462504046       -6.3115748631
 H        -8.8337037101       -1.5397918819       -5.9464041810
 H       -10.0344619086       -3.7744274102       -4.7303602220
 H        -9.5502328380       -4.4618876368       -6.3200920120
 H        -9.1830308271       -5.2421067507       -4.7380839168
 H        -6.1398482562       -4.8994135908       -1.0922842218
 H        -7.2970113367       -3.5432520079       -0.8344681837
 H        -6.2529803354        0.1945154047       -3.1565307554
 H        -5.8051042622        0.9903930969       -1.5985776636
 H        -7.4641709205       -1.1512730719       -0.9505110058
 H        -6.5012543872       -0.1574799806        0.3490450385
 H        -6.7993240695       -1.9156896384        0.6381510162
 H        -4.1377830024       -1.1155593940        0.9013317782
 H        -4.2401965507       -2.7004138829        0.9325347643
 H        -3.1367720503       -1.9568282132       -0.2247986407
 H        -4.8361004303        2.2635781896       -3.7599299816
 H        -3.6196162245        1.6365647523       -2.6030329750
 H         0.6527983495        0.7687674695       -5.2974824161
 H        -0.1383757654        2.2644942976       -4.6436206314
 H        -3.9459249761        1.5108813085       -6.9384455441
 H        -2.9024313437        0.2706412749       -7.1635957911
 H        -2.3158549200        1.8638114030       -7.4246185441
 H        -1.5692956325        3.1893381163       -5.3411266706
 H        -3.3618505216        3.3745967996       -5.2593705788
 H        -2.3527350960        2.8089755633       -3.8928502185
 H         1.5871903631        1.2856840062       -3.1838794138
 H         0.7137655444       -0.2617646853       -3.1510653305
 H         2.5920026469        0.6897891814        1.1897579880
 H         1.8050290299       -0.9052442909        1.6090204531
 H         1.1455597794        3.3543531709       -0.4085611670
 H         2.5160633630        2.4222805930       -0.6051046168
 H         1.8280289696        2.3208509187        0.9270215236
 H        -0.1272123772        1.1441415881        1.5504128241
 H        -1.2374979599        1.9363063527        0.3813441654
 H        -1.1075430292        0.1620137136        0.4331649049
 H         3.6938704778       -2.0776702577        0.3743635014
 H         3.9780578191       -0.5299861171       -0.5577276268
 H         4.5462662698       -0.0100219964        6.0037618218
 H         5.9424270264        0.4074197577        5.0038918309
 H         4.7935568728       -3.2842018247        1.7868412382
 H         3.3206862425       -2.7683313175        2.4914862028
 H         4.6820419990       -3.5222074807        3.5670416820
 H         7.1771193643       -0.6725154544        2.7349356285
 H         6.8783088358       -1.5584111328        4.1764984327
 H         7.0200409390       -2.5147187045        2.5838499853
 H         3.1325720134        1.4237407037        5.0656293566
 H         4.0867557365        1.8776797231        3.6026038160
 H         2.1139770814        3.7024452690        7.0700739650
 H         3.8512081424        3.9231519980        7.7089240421
 H         5.7260393907        4.4735088096        3.5230939650
 H         5.9872681575        5.4362766286        4.9609472269
 H         4.9212628158        6.0543739921        3.7019776428
 H         2.1966222302        3.4190574551        3.7284316921
 H         2.5992976298        5.1172667513        3.5900983576
 H         3.5451258272        3.8869273555        2.7295560357
 H         2.0293459546        6.3317299863        7.7293253670
 H         1.5711622297        5.0610851938        8.7668381749
 H         7.1118105602        8.3864515324        8.8510618664
 H         6.2784849344        7.6967022975       10.3599715052
 H         6.7223547703        6.6971900984        8.9210683524
 H         1.6514613472        8.0898308790        9.6992900150
 H         2.4263355411        8.3750529499        7.9978872630
 H         2.9017136148        9.3966996568        9.3542830773
 H         2.9496306863        7.4247666651       11.5184998870
 H         4.5980133814        6.9551691857       11.5268352312
 H         4.1845952501        8.6037509462       11.2193230044
 Na       -2.9963740283       -2.1739540402       -3.8410050462
