155

 C         0.5551088715       -5.1117887870       -3.4458393250
 C        -0.6935714478       -4.4618566002       -4.0430132606
 C        -1.3759304269       -5.1876507517       -5.2572178362
 C        -2.7356879704       -4.4382912875       -5.6783985582
 C        -4.1009875597       -5.0634538328       -5.6871355768
 C        -0.4298460741       -5.0292810851       -6.5040019462
 C        -1.5368847960       -6.7268357049       -4.9525803111
 O        -1.1927933824       -3.5859088449       -3.3367244110
 O        -2.5616361271       -3.3352985577       -6.1380607969
 C        -5.2244482149       -4.0315030328       -6.1524268536
 C        -6.5935444586       -4.7313298099       -6.1152352496
 C        -7.8614726631       -3.8740024728       -5.5532530745
 C        -7.4333533733       -3.5207221821       -4.0676157187
 C        -7.1290232809       -4.6813837585       -3.1373989318
 O        -6.7593555023       -5.9279856187       -6.2237823756
 O        -7.4914769790       -2.3377976099       -3.7168338830
 C        -8.0802520611       -2.6269029330       -6.4184149212
 C        -9.0999039366       -4.8648289087       -5.4849167025
 C        -6.5965157306       -4.0580395235       -1.8656235594
 C        -5.3982541659       -3.0124784675       -2.0936362517
 C        -5.3212820199       -1.8257262490       -0.9725526949
 C        -4.4559968846       -0.7375322916       -1.7861219930
 C        -5.0297314512        0.4766491770       -2.3754847726
 C        -6.7860010148       -1.1510495918       -0.6463561239
 C        -4.4746944967       -2.2757845031        0.2199113700
 O        -4.6327573026       -3.1820012257       -2.9454899947
 O        -3.3301869177       -1.0840810002       -2.0026031294
 C        -4.2497969742        1.3846241604       -3.2663443487
 C        -3.8742788275        0.7196748068       -4.5757349541
 C        -2.7293292989        1.2702941826       -5.3096814900
 C        -1.4035165085        0.9024250721       -4.6287874738
 C        -0.3073443265        1.9296265486       -4.4211799771
 O        -4.4449734601       -0.3199952794       -4.9629818162
 O        -1.2209935369       -0.2277995461       -4.1678302011
 C        -2.5973647284        0.6208703605       -6.7623895195
 C        -2.8144305100        2.8641188269       -5.2989618761
 C         0.8186365898        1.5613830322       -3.4128132962
 C         0.0279685588        1.2238872800       -2.0831919779
 C         0.6163970993        1.0419143125       -0.6678011186
 C         1.8208133037       -0.0538778975       -0.6936796144
 C         3.0779692852        0.3020830452        0.1880750497
 C         1.1699692262        2.4877429238       -0.2492066762
 C        -0.5474485185        0.6212671431        0.4046319567
 O        -1.1593575243        1.4175269251       -2.0965878153
 O         1.6918662478       -1.0459858670       -1.3546854702
 C         3.3705274381       -0.9309314280        1.0410932443
 C         4.8397772377       -1.1249621228        1.4121715998
 C         5.0584565659       -1.4996096650        2.9392444060
 C         4.1453609217       -0.7385953966        3.9704463768
 C         3.9388918732        0.8417495072        3.6791865651
 O         5.7697044036       -1.0864878865        0.5710379163
 O         3.6870004466       -1.2821705886        4.9349904193
 C         4.7671467998       -3.1086673834        3.0288084386
 C         6.5076472301       -1.3485813420        3.3664714139
 C         3.1411831132        1.3877520266        4.9321354017
 C         3.9098921198        2.7451467749        5.3177148711
 C         3.7275034018        4.2396491266        4.5929442018
 C         2.7435231879        4.9372879194        5.6190872721
 C         3.4627571585        5.6199847831        6.8106394982
 C         5.1376591054        4.8990373587        4.5499979783
 C         3.0826789084        4.0637011507        3.2377720435
 O         4.7482701819        2.6478143250        6.1408032558
 O         1.5749171670        4.6439440762        5.5848492091
 C         2.4998315112        6.4983124537        7.7544310126
 C         2.9540628867        6.4957448951        9.1819022308
 C         3.4178877567        7.7668100998        9.9194375508
 C         4.9280396502        7.8215675528        9.5410597011
 C         6.0279955513        6.8611210881       10.1484524705
 O         2.9612525447        5.4066175838        9.8112910855
 O         5.2427610529        8.6870916460        8.7260946681
 C         2.5967749037        9.0180018213        9.5602382744
 C         3.1739960049        7.5591858561       11.5043828286
 H         1.4829504478       -4.4183351912       -3.5676466728
 H         0.3640819361       -5.4315233414       -2.4115640829
 H         0.9079941390       -5.9466977076       -4.1121975298
 H        -4.1465062587       -5.9420757511       -6.3008607797
 H        -4.2783129881       -5.3806173129       -4.6167147400
 H        -0.3196304947       -3.9972562581       -6.8506115482
 H        -0.9520112524       -5.5004671664       -7.3849489882
 H         0.4683969373       -5.5201345975       -6.3070395772
 H        -0.6108137053       -7.3138969774       -5.0806951990
 H        -1.8315554480       -7.0017658434       -3.8616715894
 H        -2.3588716879       -7.2294663978       -5.5162141347
 H        -5.2127735268       -3.1280100784       -5.5734604030
 H        -4.8640133728       -3.6796217115       -7.2289408461
 H        -7.9944969771       -5.3761744410       -2.9792992078
 H        -6.2925133547       -5.2254396314       -3.4950619205
 H        -7.7389704824       -2.8018105783       -7.4394171428
 H        -7.6047083101       -1.7616398257       -6.1163056523
 H        -9.1079860237       -2.2513182912       -6.4363861361
 H       -10.0095872785       -4.3546474670       -5.3690970224
 H        -9.1720588493       -5.5114368783       -6.3774143740
 H        -8.8081651915       -5.5614168943       -4.7856446028
 H        -6.1997199620       -4.9455609170       -1.3609926288
 H        -7.4245249492       -3.6441818995       -1.3002382950
 H        -5.8915935453        0.1368304070       -2.9293641261
 H        -5.5269496299        1.0775825734       -1.5573603578
 H        -7.4650661745       -1.4612705732       -1.4159821685
 H        -6.8682313214       -0.1455142348       -0.7277799101
 H        -7.2653315081       -1.6354171853        0.2059368918
 H        -4.2821233285       -1.4714766341        0.9304671968
 H        -4.7941089071       -3.0666060954        0.8723612203
 H        -3.5659645361       -2.6208176290       -0.1738045660
 H        -4.8494253797        2.3125977001       -3.4270087705
 H        -3.3236949875        1.7422384986       -2.8188249932
 H         0.1986086624        2.3648971932       -5.2945352243
 H        -0.6886330907        2.8604467436       -3.9189111506
 H        -3.3172856779        1.1156080900       -7.4875239326
 H        -3.0043281925       -0.4515906001       -6.8088190714
 H        -1.5932437189        0.5885859040       -7.0718108376
 H        -2.1194064254        3.2284933695       -6.0559071762
 H        -3.7995370777        3.0806512327       -5.6930171038
 H        -2.6128149405        3.4267300074       -4.3410382161
 H         1.4206067543        2.4340960499       -3.0765505013
 H         1.5084761307        0.8217927603       -3.8342924580
 H         3.8698815558        0.3466925694       -0.5529453093
 H         3.0489853530        1.3140189795        0.6868998185
 H         0.4364069757        3.2523254104       -0.5701375572
 H         2.1593107620        2.7008444462       -0.6586526663
 H         1.1192965871        2.5543758286        0.8968263285
 H        -0.1268415290        0.7596860659        1.4407277066
 H        -1.3406793495        1.2290533153        0.1944586164
 H        -0.9189745798       -0.4267949385        0.2959273339
 H         2.6983594249       -0.9327220109        1.8688939245
 H         3.0627741347       -1.6819150717        0.3641146070
 H         4.9064734000        1.4102819673        3.6047698541
 H         3.3677820416        0.9424754494        2.7538111369
 H         5.7084429028       -3.6789975149        2.8818692496
 H         4.0883622257       -3.3775562598        2.2845843514
 H         4.4642838667       -3.2537231452        4.0768648339
 H         6.8726510012       -0.3482031277        3.1493718396
 H         6.7301855757       -1.7124935584        4.3322760250
 H         7.2369607773       -1.8835957320        2.7378834719
 H         3.1206553281        0.6671861073        5.8284179484
 H         2.0534500473        1.3875345075        4.6998816329
 H         4.1079495483        4.9583573063        7.3975971960
 H         4.1908647439        6.2425687966        6.3165995933
 H         6.0111942982        4.2987477676        4.2037455926
 H         5.4703937643        5.1123540141        5.5818717592
 H         5.0956514509        5.7800908117        3.9419540406
 H         2.0592879304        3.5618746251        3.2727229961
 H         2.8502598010        5.0427130641        2.8459447233
 H         3.7871758439        3.4648650816        2.5717238043
 H         2.3632973300        7.4834034751        7.3576972686
 H         1.5328944436        5.9025361239        7.7615877720
 H         6.4559479982        6.2625569933        9.2813947103
 H         6.7544342058        7.4378338941       10.6529461345
 H         5.6494292046        6.1479054697       10.9049526675
 H         1.6434251853        8.6712775719        9.2521064086
 H         3.1155173214        9.6786666667        8.8359625554
 H         2.6322412506        9.5983066683       10.4032443496
 H         2.1761935171        7.3288689738       11.8003668592
 H         3.7262599905        6.7034661827       11.8687966452
 H         3.5640807224        8.3927589266       12.1422443921
 Na       -2.7159683526       -1.9905567627       -4.0489840848
