155

 C         0.7066766112       -4.9548709626       -3.6317671820
 C        -0.6585166089       -4.4209014279       -4.0584887861
 C        -1.3452047182       -5.1625035685       -5.2712641898
 C        -2.6348288141       -4.4155112072       -5.7880422916
 C        -4.0085660083       -5.1351892382       -5.9132452819
 C        -0.2934534663       -4.9582986367       -6.5008898198
 C        -1.6180379269       -6.6571861269       -4.8239508973
 O        -1.1297266937       -3.5317019244       -3.3827262990
 O        -2.6384125367       -3.2236253497       -6.1011292250
 C        -5.2055519343       -4.2192823028       -6.1260023575
 C        -6.5681274121       -4.9118826044       -5.9848075310
 C        -7.8643131729       -3.9437573263       -5.5746043622
 C        -7.5255560195       -3.4040912187       -4.1662718226
 C        -7.2761628149       -4.5422455785       -3.1255004304
 O        -6.6512627890       -6.1063979298       -6.0514472927
 O        -7.3619557655       -2.2379369626       -3.9293414488
 C        -8.1485582115       -2.8315990118       -6.6712155410
 C        -9.1129897625       -4.8424435524       -5.5498613994
 C        -6.5039744151       -4.2081355843       -1.7502076376
 C        -5.4600154881       -3.1874184576       -2.1028131551
 C        -5.3778698281       -1.8706786599       -1.1681855442
 C        -4.5647907098       -0.7989809246       -1.9157655850
 C        -5.2598481210        0.4284566478       -2.4225724995
 C        -6.8349120510       -1.4747269332       -0.6634401775
 C        -4.5821045828       -2.1998877899        0.1350193492
 O        -4.5887715128       -3.4495336490       -3.0085511763
 O        -3.3277662318       -0.7313646489       -1.9946545889
 C        -4.2492419745        1.3555377301       -3.2540055086
 C        -3.8087933350        0.6235023781       -4.5018137201
 C        -2.7222161367        1.3595684340       -5.4058364039
 C        -1.2462808152        0.9103593504       -4.7271270587
 C        -0.0761821212        1.8781094588       -4.6314640645
 O        -4.1518038064       -0.4898941457       -4.7688224715
 O        -1.0850858755       -0.1504093938       -4.2387246018
 C        -2.7860482130        0.7653337797       -6.8332922240
 C        -2.9638394673        2.8187464580       -5.6234585360
 C         0.7482921945        1.7243138115       -3.3033726855
 C        -0.1168764907        1.5994643102       -2.0056832010
 C         0.7895050301        1.2252233380       -0.7441108513
 C         1.9112299220        0.0639528039       -0.8415174511
 C         3.0574944267        0.0450796598        0.2776623686
 C         1.4521886400        2.5957352080       -0.1681690403
 C        -0.0562793972        0.4472826750        0.2908926159
 O        -1.3246002682        1.6673137400       -1.8946654557
 O         1.7546199771       -0.9505211545       -1.4693958216
 C         3.2364852200       -1.3401042913        0.9938166680
 C         4.6935458564       -1.2519295111        1.4530960610
 C         4.9782933138       -1.5517024107        2.9763338705
 C         4.2446560653       -0.7125293652        4.0049552459
 C         4.0260263196        0.7273769317        3.6273738302
 O         5.6058889057       -0.9159892632        0.7294566705
 O         3.8272079423       -1.2219088993        5.0378850487
 C         4.7089039373       -3.0906706411        3.1924026873
 C         6.4881544629       -1.2182883327        3.2627761199
 C         3.2433569970        1.5370340382        4.6754805170
 C         4.0431382084        2.6558610602        5.3921051057
 C         3.7636428892        4.1128457279        4.7414354027
 C         2.8215139232        4.8403695977        5.8233106182
 C         3.4332530296        6.0485488667        6.7005304860
 C         5.1337179772        4.7033928472        4.3790131199
 C         2.8451812456        4.0604998560        3.3713021089
 O         4.8903852584        2.4881332002        6.2501299605
 O         1.6388506231        4.5725795495        6.0417990259
 C         2.4468286413        6.7207226684        7.6703629697
 C         2.7766082253        6.6202693169        9.1672802638
 C         3.2888136822        7.7967904022       10.0568453602
 C         4.7950554292        7.8463603098        9.5963145002
 C         5.6279609242        6.6944259802       10.2646118336
 O         2.7107281712        5.5251525533        9.6325510453
 O         5.2638852025        8.6071518967        8.8059736300
 C         2.5879338764        9.1689803883        9.7267699683
 C         3.1429305181        7.4484437519       11.5273432899
 H         1.5233627610       -4.2753687539       -3.7897277622
 H         0.5386741278       -5.1799084110       -2.5959237919
 H         1.0405042652       -5.7523410287       -4.1473718078
 H        -3.8723242265       -5.7716716928       -6.8280844618
 H        -4.2036501270       -5.8011663427       -5.1161424929
 H        -0.1986203579       -3.8771038872       -6.6511777960
 H        -0.6402714847       -5.2524280825       -7.4438775446
 H         0.6859323284       -5.4333950156       -6.1932937066
 H        -0.7371396508       -7.2817988710       -4.8346500560
 H        -2.0064784630       -6.7955085917       -3.8751735048
 H        -2.3941536990       -7.1209604446       -5.4359965348
 H        -5.0692919498       -3.3847527515       -5.3763061379
 H        -5.1183524819       -3.7246969137       -7.0244923892
 H        -8.2349969482       -4.9744602265       -2.8990230220
 H        -6.6211690342       -5.3451122310       -3.5718651503
 H        -8.3118978034       -3.2999114896       -7.6256561658
 H        -7.3103967890       -2.1177017671       -6.9959502400
 H        -8.9748182978       -2.1933452192       -6.4419311800
 H        -9.8213407927       -4.5240764920       -4.6954640552
 H        -9.6675016191       -4.5004532726       -6.3996426886
 H        -8.9200974774       -5.9596565772       -5.7086175475
 H        -6.0015188252       -5.1751897995       -1.4984382413
 H        -7.2149433908       -3.8456675204       -0.9665258934
 H        -6.2510180225        0.3105146457       -2.9110069029
 H        -5.4837263012        0.9732143858       -1.5478630034
 H        -7.5766146326       -1.2813233713       -1.4506410451
 H        -6.7772724712       -0.3769651864       -0.2545571929
 H        -7.2031965882       -2.2412803141        0.0253141982
 H        -4.7388912135       -1.5945399448        1.0403562033
 H        -4.8172646268       -3.1653946160        0.6077063775
 H        -3.4719761678       -2.3186678152       -0.1207205502
 H        -4.7536638586        2.2809923017       -3.4595138407
 H        -3.3125219282        1.6638692403       -2.7602656067
 H         0.6284434642        1.8662217393       -5.4710688942
 H        -0.3323665102        2.9147651285       -4.6019324800
 H        -3.6821490626        1.1174842275       -7.2508151138
 H        -2.8973695879       -0.2603921508       -6.9673144073
 H        -1.8655812752        1.1066425939       -7.4152311094
 H        -2.1683577476        3.3586180189       -6.1831908797
 H        -3.9654934384        2.9589445791       -6.1042417171
 H        -2.8831648139        3.2430447783       -4.6461759291
 H         1.3561213447        2.6170378046       -3.0904166898
 H         1.4739960783        0.8726443081       -3.3361324833
 H         4.0152122416        0.2341151728       -0.2120998629
 H         2.9097625518        0.8629436769        0.9157349716
 H         0.7563802375        3.4052625738       -0.4609982341
 H         2.3588200018        2.8243345659       -0.6840535267
 H         1.6813338874        2.4585748503        0.8420128628
 H         0.5032851753        0.0691188720        1.0882683377
 H        -0.9066804777        1.1715124496        0.5970194308
 H        -0.5598385005       -0.3096406440       -0.2352618154
 H         2.4391857324       -1.5444147566        1.7587471448
 H         2.9514503908       -2.0549409178        0.1684115867
 H         4.9987199146        1.1059258140        3.4243777094
 H         3.5395087683        0.6425666138        2.6349815704
 H         5.3502360101       -3.6114464077        2.4846012259
 H         3.7279890914       -3.3345189841        2.6927039030
 H         4.9296851003       -3.3204440550        4.2135619117
 H         6.6016459682       -0.1776661592        3.4399472027
 H         6.8542850320       -1.9110829176        4.0414114963
 H         7.2030411555       -1.3767802160        2.5367802029
 H         2.9537133672        0.7729500103        5.3560377521
 H         2.2782604271        1.9078634997        4.2952476176
 H         4.2559880684        5.5716707401        7.2899736200
 H         4.0598351589        6.7930805258        6.1047018686
 H         5.4990037978        4.1551435038        3.5355705232
 H         5.8529198386        4.4902277705        5.1175103776
 H         5.1018138691        5.8034471116        4.1194863438
 H         1.7997223887        3.9381501394        3.6120315561
 H         2.8697155005        5.0711151393        2.8968598002
 H         3.1032135040        3.2723016233        2.6695513416
 H         2.4741174029        7.7905109339        7.3636769278
 H         1.5123151909        6.2405558464        7.5370220600
 H         6.5975652550        6.6679765503        9.8720879394
 H         5.7088622182        6.9270686450       11.3413975048
 H         5.1158253131        5.7360537197       10.2270560443
 H         1.5833772086        8.9000936284        9.2793667030
 H         3.1932562751        9.6680146988        8.9747982558
 H         2.6129937134        9.9123086327       10.6092735268
 H         2.0592295656        7.3008544037       11.7411524084
 H         3.5705854937        6.4733131703       11.8264374331
 H         3.4810836008        8.1821412203       12.1977513176
 Na       -2.7676728810       -2.0640519158       -3.7812871722
