155

 C         1.4632661032       -4.4832009174       -4.3763150814
 C        -0.0437218030       -4.2470970587       -4.4162094655
 C        -0.6527266628       -5.1699739010       -5.6320219193
 C        -2.0435675198       -4.4345103525       -5.8495722092
 C        -3.3563289424       -5.2647899018       -5.6525730241
 C         0.1221793413       -4.9466299716       -6.9961077658
 C        -0.6512806770       -6.7043904060       -5.1741900493
 O        -0.6324309194       -3.5852064855       -3.5783905553
 O        -2.0079952075       -3.2359603257       -6.0735374153
 C        -4.6808969615       -4.5433943787       -6.1756545129
 C        -5.9729953691       -5.1642791999       -5.5998210102
 C        -7.3849602945       -4.3843934642       -5.8510718315
 C        -7.7804435578       -3.6522451994       -4.5178108296
 C        -8.1444989471       -4.3343937901       -3.1560835414
 O        -6.0546658173       -6.3011488560       -5.1921338738
 O        -7.5250058433       -2.4900446580       -4.3368372058
 C        -7.2795466935       -3.4350674015       -7.0023309725
 C        -8.3841595314       -5.4692759857       -6.2325677560
 C        -6.8589277701       -4.5105299544       -2.3010783264
 C        -5.7985537073       -3.4375063591       -2.4573670606
 C        -5.6790533446       -2.2878524129       -1.4594417511
 C        -4.8881426021       -1.1274742997       -2.1382910933
 C        -5.7021127955       -0.0295745169       -2.9122224919
 C        -7.0870006033       -1.7475072875       -0.8537469316
 C        -4.8307898709       -2.8285858578       -0.2200893802
 O        -4.9713666839       -3.5692541945       -3.3411405451
 O        -3.6665262959       -1.1279037706       -2.1253158062
 C        -4.9546198144        0.9822404226       -3.8053445051
 C        -4.0562243220        0.2990538303       -4.7533591847
 C        -2.7798532991        1.1031750724       -5.3857285917
 C        -1.5249076674        0.7412029086       -4.5458981147
 C        -0.3370971940        1.7842305777       -4.5574978411
 O        -4.1863078707       -0.8847568116       -5.2154387160
 O        -1.4747836605       -0.3744937005       -4.1324321303
 C        -2.6556876318        0.4250791466       -6.8830186908
 C        -3.2099426667        2.6112273031       -5.5355730764
 C         0.5685122685        1.5640516343       -3.4499167730
 C         0.1306784978        2.1442497635       -2.1179308034
 C         1.2857481969        2.2217588316       -0.9439283486
 C         2.2905970732        1.0631723217       -0.6508654271
 C         3.0602526806        1.0795982460        0.7373193250
 C         2.2775937591        3.3451216968       -1.4468667258
 C         0.5214419812        2.5594762370        0.3497252996
 O        -1.0084633111        2.4975077386       -1.8597742281
 O         2.5621804472        0.2251032998       -1.5311865809
 C         3.5736798110       -0.3290104954        1.0425460226
 C         4.7343775116       -0.4022287065        2.0590733704
 C         4.5516189119       -1.2156956028        3.6219126654
 C         3.6932663678       -0.2954116274        4.5191328027
 C         4.2601080410        0.1968410585        5.9096979946
 O         5.8429478646       -0.0306927584        1.7417735493
 O         2.6631548682        0.1335279199        4.1359571425
 C         3.7775736503       -2.5363161806        3.1895350970
 C         6.1344751978       -1.3842252521        4.0457060552
 C         4.0237001877        1.6525901943        6.1673420148
 C         4.8667257192        2.6510874038        5.3774277868
 C         3.9850686964        3.9168592871        5.1093008984
 C         3.2039298598        4.5851770701        6.3741314032
 C         3.6277669611        5.7804678584        7.1059904090
 C         4.8487881964        4.9907094014        4.4673990924
 C         2.8666529367        3.5809536845        4.0200882761
 O         5.9675742312        2.5436197780        4.9837872204
 O         2.2730854273        4.0056122391        6.7857412384
 C         2.5007742893        6.7790418280        7.3478610711
 C         1.8183158982        6.6689522809        8.7293186641
 C         2.4950990367        7.2991731263       10.0737018895
 C         4.0086291704        7.0243734059       10.2348081666
 C         4.4853485617        5.9564214097       11.2634666562
 O         0.7737704441        6.1252791893        8.8083408561
 O         4.8120593523        7.5771261927        9.4844165665
 C         2.2495134002        8.8826437609        9.9661354941
 C         1.6282530834        6.7784456041       11.2528618757
 H         1.9716859661       -3.8343481077       -5.0542465218
 H         1.8168522621       -4.2974678141       -3.4176532560
 H         1.7896084087       -5.4343130294       -4.7146104521
 H        -3.2327338897       -6.2218662560       -6.0381062696
 H        -3.4129892780       -5.3819206473       -4.4996181981
 H         0.4375778135       -3.8957074662       -7.0555945895
 H        -0.5359835709       -5.0912407953       -7.7960972110
 H         0.9832835005       -5.6462785058       -7.1125850892
 H         0.3775301616       -7.0561067365       -5.0631232389
 H        -1.3390613147       -6.7791498999       -4.2482739250
 H        -1.1675353825       -7.2054090994       -6.0500453430
 H        -4.6483856312       -3.4516433215       -5.8697694827
 H        -4.6611022816       -4.5361715948       -7.2791004739
 H        -8.9026350560       -3.7247723527       -2.7623292841
 H        -8.5760054648       -5.3509063051       -3.3330356384
 H        -6.9331839721       -3.9703467141       -7.8748482466
 H        -6.4973777043       -2.6279058312       -6.9315465878
 H        -8.2560424694       -3.0585099299       -7.2495796185
 H        -9.1656265152       -4.9448952359       -6.7729361667
 H        -7.9958948851       -6.2323852630       -6.8321678019
 H        -8.8738183242       -5.9166244900       -5.3847162495
 H        -6.4761479934       -5.5089680856       -2.6148128171
 H        -7.1331912363       -4.5324718170       -1.2241157604
 H        -6.5171996889       -0.4821499902       -3.4606523678
 H        -6.0818732459        0.6012575277       -2.0832327164
 H        -7.6221310673       -1.2109043603       -1.5064942308
 H        -6.7639795443       -0.9299779693       -0.1561886341
 H        -7.5382286420       -2.4241313955       -0.1628384109
 H        -4.5498012929       -2.0961017719        0.5063380765
 H        -5.4031620555       -3.4640269546        0.3350133179
 H        -3.9681640289       -3.3596044568       -0.6176636976
 H        -5.6299158007        1.6464216306       -4.3916900945
 H        -4.3725514690        1.5988090151       -3.1292143376
 H        -0.0398251532        1.5943367865       -5.5730943354
 H        -0.8903159922        2.7189046369       -4.4953087908
 H        -3.6486748805        0.3022679012       -7.3021336257
 H        -2.2110858850       -0.5678863087       -6.8918685994
 H        -2.1213244294        1.1822483283       -7.4597984930
 H        -2.6412361163        3.0046911311       -6.3911716210
 H        -4.2473021839        2.7477385253       -5.8501331051
 H        -2.9298752872        3.2311881136       -4.7397251368
 H         1.5441579313        1.9223676255       -3.8064713789
 H         0.7236355743        0.4931874864       -3.0736952200
 H         3.9848172818        1.6541379131        0.6410803162
 H         2.4603621592        1.4491231169        1.5448122621
 H         1.8211545149        4.3753099357       -1.5506160820
 H         2.7208816353        3.1636531670       -2.4145984910
 H         3.1552175939        3.2334432786       -0.8487717190
 H         1.1655578836        3.0336727636        1.1462030354
 H        -0.2486082913        3.2567281510        0.1488259216
 H         0.0063560084        1.6364073058        0.7386459341
 H         2.8177915793       -1.0034680478        1.4513418431
 H         3.9919055213       -0.7914380689        0.1566297689
 H         3.7049535719       -0.4968502367        6.5959027865
 H         5.2998533927        0.0152831213        5.9260502551
 H         4.2060516369       -2.8133508431        2.2304374780
 H         2.7421092369       -2.1622183725        2.9482872210
 H         3.8849231227       -3.2132583995        4.0269003831
 H         6.5869229754       -0.3793630485        3.8792014795
 H         6.3069324459       -1.8885890850        5.0584050538
 H         6.5958198415       -2.1243589175        3.4018800076
 H         4.0625860466        1.9428597953        7.2446033132
 H         2.9135019408        1.8378408315        6.0652023953
 H         3.9966209426        5.4373853948        8.1551367021
 H         4.6056129085        6.1712155912        6.6589241943
 H         5.1211485661        4.7364513017        3.4491903919
 H         5.6651075744        5.3013063769        5.0445440853
 H         4.1144726788        5.8710248876        4.3794368293
 H         2.1112563035        2.9725719540        4.4800370513
 H         2.4382543524        4.4845351445        3.6546930133
 H         3.2308179055        3.0014189147        3.2551038807
 H         2.7683405083        7.8202241020        7.1305459367
 H         1.6843894476        6.6046065074        6.6420861073
 H         3.6528324789        5.2462568511       11.4476765346
 H         5.3501092464        5.4660109746       10.8903627437
 H         4.7287757923        6.3641449347       12.3196984716
 H         1.8235445156        9.3136184680       10.8626579916
 H         1.5112813736        9.1425651093        9.2943083623
 H         3.0842641059        9.3850820964        9.4960036258
 H         0.6110507303        7.1772245378       11.0723680097
 H         1.5734735826        5.6822559038       11.1882537633
 H         1.9681648768        7.2226097619       12.1474629708
 Na       -2.7400202621       -2.4412433346       -4.0398481601
