155

 C         0.9670271331       -5.3397928048       -3.4607257712
 C        -0.2076395173       -4.6467791930       -4.1171734261
 C        -0.6051005731       -5.1041099262       -5.6499614154
 C        -2.0255194727       -4.4376837352       -6.0205288383
 C        -3.1973874153       -5.3200364912       -6.4518797511
 C         0.5630993329       -4.6800586776       -6.6478561218
 C        -0.6510320878       -6.6394862421       -5.5756002463
 O        -0.8097579725       -3.8255720870       -3.4709358969
 O        -2.0841236738       -3.2531887646       -6.0633847120
 C        -4.5583838475       -4.6332266124       -6.4705651299
 C        -5.7523828590       -5.5652255521       -6.2355784516
 C        -7.1920346546       -4.7163841667       -6.1644553080
 C        -7.0592910436       -4.0458790547       -4.7306827866
 C        -7.4937877512       -4.8007721755       -3.5497751850
 O        -5.7095990062       -6.7389299028       -6.0342552778
 O        -6.6074101619       -2.9294497835       -4.5641395218
 C        -7.2864785827       -3.5488202662       -7.2066662420
 C        -8.3610276459       -5.7180781788       -6.2547138395
 C        -6.4005315961       -4.8930285186       -2.4493397159
 C        -5.3950979100       -3.7153356372       -2.6164339239
 C        -5.4397364114       -2.4745255582       -1.5550386371
 C        -4.7043691224       -1.2279065116       -2.2344174722
 C        -5.5931954172       -0.2166004781       -2.9204054581
 C        -6.8850765646       -2.0072163757       -1.0994030288
 C        -4.6418812805       -3.0566811821       -0.2847919943
 O        -4.4246274285       -3.9605809971       -3.3362946325
 O        -3.5123940296       -1.0815450535       -2.0802751178
 C        -4.8461104254        0.8338107473       -3.8706826312
 C        -4.0104354174        0.1995444054       -4.8879566791
 C        -2.7887431660        0.8408610582       -5.5562989623
 C        -1.5360978246        0.8460139050       -4.5670976540
 C        -0.8045803908        2.1441352348       -4.1529656770
 O        -4.2929900507       -0.9484411485       -5.2523828050
 O        -1.3295920928       -0.1934554131       -4.0129478054
 C        -2.4325709722       -0.0710097466       -6.8588618846
 C        -3.2022765918        2.3087282070       -5.9733803373
 C         0.3714019499        1.8924677628       -3.1552361593
 C         0.3145257622        2.7822978177       -1.8939068327
 C         1.6243761283        2.8714715183       -1.0535203363
 C         1.7956924027        1.4758301542       -0.3086581792
 C         2.7370832007        1.4612100342        0.8932157031
 C         2.8273683790        3.0386668245       -1.9832129461
 C         1.5688827957        4.1463422187       -0.2051905308
 O        -0.6745838183        3.4283116231       -1.6256223113
 O         1.5465742940        0.4380840253       -0.8191230913
 C         3.3497733729       -0.0131925127        1.0837395803
 C         4.6345605202        0.0628656320        2.0340678384
 C         4.5903216004       -0.8597643226        3.3655473753
 C         3.3568729112       -0.3297717045        4.3167104208
 C         3.7150602091        0.2852431448        5.7211167247
 O         5.5902219464        0.7162859179        1.6573962844
 O         2.2436439981       -0.5211754784        3.9807539502
 C         4.2571636626       -2.2515660317        2.9093231813
 C         6.0176535601       -0.8382741585        4.1657708063
 C         3.4653080651        1.8379250198        6.1173885087
 C         4.4452530366        2.8948971322        5.4291984971
 C         3.8368288202        4.2746113429        5.0487377861
 C         3.2613777745        4.7421773683        6.4230507815
 C         4.0961691480        5.7098295078        7.3145101535
 C         5.0642079138        5.0726480506        4.4311959213
 C         2.7190807077        3.9830863386        4.0018989756
 O         5.6255161140        2.6452756809        5.3251800064
 O         2.1177431216        4.4176153704        6.6950495294
 C         3.2249843796        6.9118153962        7.8982802437
 C         1.8987540782        6.6166220057        8.7279216262
 C         1.9573009208        7.0648129032       10.3058411552
 C         3.1693345070        6.4678038127       11.0286165890
 C         3.0898176375        5.7895531870       12.4107138478
 O         0.9261113614        6.2161392708        8.2389925637
 O         4.2085100466        6.6065207951       10.4253358188
 C         2.1498371230        8.6151401290       10.5203021866
 C         0.5363307482        6.6872685209       10.9649701951
 H         1.9266014560       -4.6925117100       -3.7958927900
 H         1.0173093185       -5.3922778436       -2.3943540991
 H         1.1075650456       -6.3937661882       -3.8053010648
 H        -3.0900527942       -5.7242573774       -7.4473561176
 H        -3.1069939397       -6.1282538743       -5.7461568247
 H         0.7178713154       -3.6235844339       -6.8903589947
 H         0.3936355163       -5.1152413042       -7.6396974499
 H         1.4188226970       -5.1194721021       -6.1919219257
 H         0.4153979068       -7.0009407103       -5.6972755705
 H        -1.0809589606       -6.9131433673       -4.6513531148
 H        -1.3008481173       -7.0235150434       -6.3494005125
 H        -4.6071340088       -3.8413914286       -5.7380638424
 H        -4.7058834200       -4.2252734397       -7.4581330130
 H        -8.2235746615       -4.2023560310       -2.9862783103
 H        -8.0739598905       -5.7125372767       -3.8583082645
 H        -7.4721632334       -3.9722598153       -8.1943522163
 H        -6.3645361427       -3.1039449683       -7.1040838967
 H        -7.9714620620       -2.7638143930       -6.8640994603
 H        -9.0847221244       -5.4510576655       -5.5473181455
 H        -8.8557240691       -5.7078415188       -7.2326621266
 H        -7.9129171255       -6.6887044251       -6.2145601031
 H        -5.7553089319       -5.7794776711       -2.5834678542
 H        -6.8296848821       -4.9309129853       -1.4394401693
 H        -6.3867980937       -0.7442033536       -3.4773573641
 H        -6.1901025860        0.2420214737       -2.1289472588
 H        -7.6835716404       -1.7579523622       -1.8886027925
 H        -6.7483958840       -1.0465470601       -0.6751662137
 H        -7.4181701457       -2.6379883706       -0.3392893395
 H        -4.7859463364       -2.3627031212        0.5767044022
 H        -5.1758594180       -4.0190280248       -0.0667144581
 H        -3.5841045240       -3.1870460793       -0.3802476421
 H        -5.6264442154        1.4981717183       -4.2638242238
 H        -4.1995441963        1.4658686810       -3.2591314382
 H        -0.2760227060        2.6767794817       -5.0169006574
 H        -1.5016107110        2.9476662147       -3.8509047788
 H        -3.1013440747        0.1514998649       -7.7527562621
 H        -2.4772574489       -1.1386125670       -6.5271588737
 H        -1.3605755081        0.1297487053       -7.1113222905
 H        -2.5316678974        2.8834196094       -6.5826020278
 H        -4.1429295730        2.1474419660       -6.5126202606
 H        -3.4228797370        2.8733843230       -5.0852140391
 H         1.2310926656        2.1684650220       -3.6830463397
 H         0.5371936229        0.8684744241       -2.8404005529
 H         3.5899559813        2.1229178217        0.7506639608
 H         2.2996184403        1.9413836472        1.7880987705
 H         2.7196125021        3.8789022589       -2.6018273228
 H         3.0697908851        2.2351955303       -2.6613191085
 H         3.7468779860        3.1647982092       -1.3433008780
 H         2.2720438386        4.0996587286        0.5672731508
 H         1.6989245872        5.0889497531       -0.8413183226
 H         0.6394570858        4.3224506603        0.2208359488
 H         2.6485354652       -0.7299458764        1.4818428524
 H         3.7934502149       -0.4694947097        0.2234985784
 H         3.0567355006       -0.3178791311        6.3722763007
 H         4.7030488193        0.0209551210        6.0788874464
 H         5.0718278443       -2.7160196182        2.3862487004
 H         3.3749447188       -2.1133469646        2.3673499612
 H         4.1189857305       -2.8303385492        3.8323292805
 H         6.4127667696        0.1064759087        4.4313116706
 H         5.9643102428       -1.5165972281        4.9663952084
 H         6.6645794251       -1.2514515654        3.3832809019
 H         3.5699845544        1.8500954511        7.1790219398
 H         2.4665115809        2.0837318304        5.7217783453
 H         4.4274305983        5.1413488570        8.1199825421
 H         4.9449296948        6.0662302314        6.7665838733
 H         5.7206479194        4.4907654199        3.7884292080
 H         5.8189898572        5.2148646020        5.2575213429
 H         4.8537349769        6.0046488933        3.9259406316
 H         1.8341019808        3.4615921112        4.3617400563
 H         2.3684597264        4.9211400835        3.6400154693
 H         3.1201647649        3.3719335698        3.1630323730
 H         3.9072040334        7.4856394487        8.5768541012
 H         2.9006082088        7.5268150474        7.0728481506
 H         2.5464522326        4.8824616998       12.3167592465
 H         4.0300141905        5.6000741420       12.9831496317
 H         2.4963507483        6.4232150444       12.9601332380
 H         1.2110802868        9.0540297778       10.7971047263
 H         2.5333618598        9.2017052792        9.5790801891
 H         2.8490558190        8.7586335472       11.3498830569
 H        -0.2305796117        7.1493820676       10.3089315686
 H         0.4595784276        5.6002828204       10.8586544087
 H         0.4336669913        7.0397438535       11.9696854829
 Na       -2.5976472498       -2.3133148369       -3.9289779045
