155

 C         0.8199523221       -6.0703899103       -3.3798258072
 C        -0.2359116361       -5.1214428525       -4.0340581577
 C        -0.4499853369       -5.3967622458       -5.5490198916
 C        -1.7437358217       -4.6235284423       -5.9985322198
 C        -3.0494127585       -5.4243323574       -6.0690276059
 C         0.7660309291       -4.6976133947       -6.3085340218
 C        -0.5295572149       -6.8790198878       -5.9359110946
 O        -0.9811189450       -4.4534702286       -3.3867687932
 O        -1.6560133637       -3.4074895714       -6.2708220471
 C        -4.3548318059       -4.6086093883       -6.3589955070
 C        -5.6484778318       -5.5025116716       -6.6258924746
 C        -7.0274967151       -4.6937401883       -6.1273901160
 C        -6.8809893957       -4.1972153063       -4.5832109050
 C        -6.9921861154       -5.2584889723       -3.4422338569
 O        -5.5552026993       -6.5797970418       -7.1163107431
 O        -6.6903982022       -3.0090605042       -4.4031772095
 C        -7.1599834996       -3.5598525611       -7.1312595779
 C        -8.3065978745       -5.6980641372       -6.2516786756
 C        -5.8340446528       -5.0419871084       -2.4438721326
 C        -4.9784481843       -3.7238282549       -2.5757745502
 C        -5.4324033141       -2.4235465220       -1.6547206367
 C        -4.8290356420       -1.2202083420       -2.3308626139
 C        -5.8198864687       -0.3396106059       -3.1886829287
 C        -7.0579630070       -2.4794632252       -1.5765937785
 C        -4.7845321281       -2.5919050504       -0.2154326838
 O        -3.9492942199       -3.6356413612       -3.1576987542
 O        -3.6309712515       -1.1723043006       -2.3778167620
 C        -5.1933467261        0.7400237032       -3.9807856976
 C        -4.1808181834        0.1026730153       -5.0224160946
 C        -2.9586518766        1.0001242981       -5.5032433765
 C        -1.7195414149        0.8632815682       -4.5016088723
 C        -1.1538252111        2.1259163404       -3.8863491657
 O        -4.1528359124       -1.1120026325       -5.1485046509
 O        -1.2907057567       -0.2707357217       -4.1952764597
 C        -2.4867929374        0.3309422473       -6.8966102858
 C        -3.3604196157        2.4632168229       -5.7027442082
 C         0.0877218517        1.9381654542       -3.0700440483
 C         0.3897079390        3.1673576662       -2.1137439230
 C         1.7667675051        3.0066175121       -1.2353924109
 C         1.7368548070        1.6749594594       -0.4701616280
 C         3.0480155503        1.4812825972        0.3633503953
 C         2.9330102766        2.8061289654       -2.2772406600
 C         2.0051486144        4.2313464674       -0.2687792755
 O        -0.2760205851        4.1499721919       -1.9405194474
 O         0.8788782340        0.8866891794       -0.5556557459
 C         2.9781645390        0.3574344139        1.3746037743
 C         4.3646085044        0.2885516460        2.1555475333
 C         4.7122208110       -0.7790906347        3.3659498130
 C         3.4951413760       -0.6792785280        4.3201884954
 C         3.6209425688        0.4004148838        5.4324991417
 O         5.3459094831        0.9050241450        1.7789404883
 O         2.4949251291       -1.3208124619        4.0592332252
 C         4.7175412141       -2.3522269213        2.8935008338
 C         6.1614765843       -0.2514312341        3.9165636493
 C         3.0156678752        1.8622377345        5.2025687432
 C         4.1369109091        2.8565335578        5.5396138154
 C         3.8688559410        4.3715979554        5.3504717030
 C         3.1309642525        4.8569005923        6.7052078425
 C         3.9169136066        5.6783557612        7.7401619824
 C         5.1118354698        5.1466626949        5.0046917710
 C         2.9433492249        4.8741702405        4.2390429286
 O         5.1484340734        2.5830838360        6.1566177003
 O         2.0279342315        4.4487733872        6.9583783764
 C         3.2150826488        6.9572007065        8.1508473922
 C         1.8155515474        6.9420117148        8.7541057785
 C         1.7576511573        7.1375573658       10.3928450637
 C         2.7543158027        6.0577252148       10.9698822297
 C         2.4600263884        5.4925718233       12.3689127593
 O         0.7776565970        6.6747338371        8.1992859576
 O         3.8670996682        6.0261491971       10.5613581817
 C         2.4528338085        8.5109226739       10.8311784976
 C         0.3237988561        6.9811550194       10.8570107676
 H         1.8691815304       -5.8788254505       -3.6310562121
 H         0.7969054801       -6.0848004785       -2.3151843919
 H         0.5526329059       -7.0850320223       -3.6361638943
 H        -2.8488993733       -6.2138420070       -6.7861610776
 H        -3.0960785386       -6.0244380791       -5.0880944985
 H         0.6856776497       -3.6036246136       -6.1023220175
 H         0.7186576568       -4.8413299358       -7.3546650387
 H         1.8127400893       -5.0189357853       -6.0085215557
 H         0.3940672229       -7.3035953318       -6.2241922375
 H        -0.8741570466       -7.5069074539       -5.1265541868
 H        -1.0974102177       -6.9989951833       -6.7766186896
 H        -4.7486616399       -3.9246373547       -5.5561733695
 H        -4.1017539828       -3.9828415887       -7.2406107629
 H        -8.0191216439       -5.1534384544       -3.0894691109
 H        -6.8301310280       -6.2969077070       -3.7743827202
 H        -7.2027917349       -4.0375605340       -8.1425390462
 H        -6.2757317076       -2.9534076639       -7.0697526548
 H        -8.1533773531       -3.1531807498       -6.9550485908
 H        -9.2115963585       -5.0748442174       -6.1869533272
 H        -8.3006399799       -6.1872323340       -7.2830763895
 H        -8.3592605581       -6.3684129030       -5.4003280992
 H        -5.1167574771       -5.8207779366       -2.6757833411
 H        -6.1416749720       -5.2132598615       -1.4383424622
 H        -6.2417297962       -1.0286662753       -3.9109231106
 H        -6.6907137322       -0.0288786335       -2.5216578045
 H        -7.4675770451       -2.3847717708       -2.6138620744
 H        -7.5154568810       -1.6669319978       -1.1330545475
 H        -7.4916656082       -3.1886412094       -0.8555531484
 H        -5.3636525455       -1.8733005317        0.4513223316
 H        -5.1510841508       -3.5214197344        0.1957626118
 H        -3.6826463529       -2.5003552997       -0.2422992330
 H        -6.0740824505        1.1952862902       -4.4516405791
 H        -4.7271214353        1.3928279667       -3.2494342834
 H        -0.9579024842        3.0093349655       -4.4762340788
 H        -2.0069052778        2.5187778827       -3.2084116600
 H        -3.0232192175        0.8092259320       -7.7691363965
 H        -2.7002117921       -0.7831572867       -6.9146198265
 H        -1.4868396682        0.5327007928       -7.1188655244
 H        -2.6279642162        3.0524051119       -6.2914265236
 H        -4.3093070622        2.5217862546       -6.2409419044
 H        -3.6461789129        2.9076058423       -4.7548596249
 H         0.9672877069        1.6146159834       -3.6006786639
 H        -0.1671054668        1.0801363739       -2.4900051443
 H         3.8633680392        1.3359965427       -0.4084683368
 H         3.1493998866        2.4328183312        0.9327408914
 H         3.0827654966        3.6296641865       -3.0315000036
 H         2.7437561993        1.8495590740       -2.7168142891
 H         3.8947319914        2.6091484468       -1.8065332104
 H         3.0435747659        4.5988352865       -0.3242133743
 H         1.4907670409        5.0725503388       -0.6243819272
 H         1.7364557114        3.9415664855        0.7491626761
 H         2.0530266208        0.5166244271        1.9374371764
 H         2.8515271250       -0.5687262656        0.7903298951
 H         3.0972665865        0.0640516686        6.3236007501
 H         4.6715418563        0.4138650508        5.6128129338
 H         5.4174040863       -2.4363364638        2.0787725217
 H         3.6965115183       -2.5538170002        2.5332943874
 H         4.7933554633       -2.9466881507        3.7630087655
 H         6.2591713922        0.7985019225        4.2135966337
 H         6.4278720443       -0.9100147352        4.7067137805
 H         6.8362885682       -0.4817891331        3.1576398898
 H         2.0240845842        2.1796086148        5.6485497963
 H         3.0221409757        1.8880751491        4.1043912490
 H         3.8531328121        4.9912253503        8.6143910167
 H         5.0173522614        5.8825000101        7.5869929624
 H         5.6700683492        4.6000225197        4.2509834227
 H         5.7083630239        5.5107389208        5.7822628120
 H         4.8163650199        6.1124510995        4.4677055353
 H         2.0476572345        4.1541005203        4.2165686640
 H         2.6416186482        5.9266525361        4.2875546118
 H         3.4375802254        4.7837897855        3.2838224324
 H         3.9061000275        7.3904831087        8.7977803029
 H         3.2320647357        7.7145528210        7.3683086854
 H         1.4930863076        5.0922397912       12.3933147454
 H         3.1680076065        4.7387333619       12.7014849641
 H         2.4013960323        6.3611990546       13.0115979904
 H         2.1352529632        9.3465332462       10.1440023675
 H         3.5617806110        8.4157784625       10.7416456825
 H         2.0254959928        8.6220444957       11.8273026662
 H        -0.3026983546        7.7490577909       10.3835451114
 H        -0.0996750817        5.9884833232       10.5662756210
 H         0.2988980332        7.1734264765       11.9225557138
 Na       -2.1532200179       -2.3423066155       -4.1168618284
