155

 C        -0.5770220201       -6.8133924306       -3.4423374761
 C        -0.7675066690       -5.4076604952       -3.9987220650
 C        -0.3384023974       -5.1056943431       -5.4335346683
 C        -1.6612077610       -4.6192924556       -6.1385189058
 C        -2.6220237634       -5.6251432139       -6.8470915368
 C         0.7774784819       -3.9395841852       -5.3654073640
 C         0.2366664762       -6.3847851175       -6.1181175421
 O        -1.2256905242       -4.5419508017       -3.2530592116
 O        -2.0001092099       -3.4774032713       -5.9099485594
 C        -3.9952539752       -4.9660867514       -7.0384108991
 C        -5.1255067652       -6.0093775637       -6.9678194945
 C        -6.5242646527       -5.4713779664       -6.8028276107
 C        -6.5595112611       -4.8911147795       -5.2843198313
 C        -6.2388178686       -5.9720394186       -4.1521974916
 O        -4.8289405696       -7.2046231418       -6.9198464117
 O        -6.9469748317       -3.7593378526       -5.1350149526
 C        -6.9759842445       -4.2568153599       -7.7403499892
 C        -7.4764007563       -6.6770092849       -7.0135124404
 C        -5.9852898548       -5.1916685884       -2.8160504286
 C        -5.0008145867       -3.9935275881       -2.9092815302
 C        -4.8973999674       -2.9755655404       -1.6535294301
 C        -4.5574744862       -1.5948335208       -2.3395159866
 C        -5.6621105335       -0.6984726285       -2.9443809470
 C        -6.1984642638       -2.8078908102       -0.7964920310
 C        -3.7891363188       -3.3153833805       -0.6583278935
 O        -4.2765689991       -3.9474023836       -3.8528641189
 O        -3.3918032717       -1.1813644577       -2.3402498006
 C        -5.0413507033        0.4906268632       -3.7021807584
 C        -4.0854393351       -0.0256737249       -4.8599483222
 C        -3.1258727977        1.0009971068       -5.4754797867
 C        -1.8036465639        0.8791232620       -4.4531909095
 C        -1.1553175253        2.2445435034       -4.0199639292
 O        -4.2223459932       -1.1974454286       -5.1344278596
 O        -1.4357116882       -0.2146126599       -4.0227917788
 C        -2.5845504419        0.4535061916       -6.8645876274
 C        -3.4994099434        2.5090301580       -5.7757463136
 C         0.0990204237        1.9042320742       -3.1591097431
 C         0.6439556206        3.2553072672       -2.6382771695
 C         2.2080226132        3.2037862227       -1.9986877837
 C         2.2180115421        2.2256045931       -0.8688962318
 C         3.5894104131        2.0004002268       -0.2321254595
 C         3.2088870273        2.9326904732       -3.1531062729
 C         2.5319461186        4.5597110934       -1.2911605150
 O         0.0735420108        4.3151300767       -2.7250949885
 O         1.1530388138        1.6519430331       -0.5354370897
 C         3.3893301855        1.2787054249        1.1264899531
 C         4.6359598497        1.2861636218        2.1753434818
 C         4.6788325929        0.0363470537        3.2023371723
 C         3.3273785468        0.1153325526        3.9537524012
 C         3.1927359171        0.7899051125        5.2944525017
 O         5.4396759110        2.1452148628        2.0417092695
 O         2.3300578363       -0.3847484491        3.4493390183
 C         4.7596243812       -1.2925877333        2.3178516852
 C         5.8869057438        0.0255167340        4.0771750649
 C         2.8528874732        2.2629010386        5.2679120140
 C         3.9499283936        3.0612174416        6.1027243856
 C         3.6720835584        4.5648135850        6.2205333559
 C         2.6390658232        4.6015779490        7.3889727382
 C         3.1937623122        4.1809265196        8.7200107474
 C         4.8804504889        5.4961427108        6.6365735300
 C         2.9259295013        5.3041246545        4.9883275397
 O         4.8547898175        2.5074627440        6.6703214034
 O         1.3997076553        4.7225207616        7.2140087488
 C         3.3819400775        5.3437608437        9.8482406096
 C         2.4993000611        6.5687773798        9.6483280608
 C         1.7761768688        7.2603789783       10.8573753282
 C         0.7688724418        6.1140832163       11.5454801206
 C        -0.2549572457        5.3080263056       10.5963614717
 O         2.2625493135        6.9382756557        8.4626101659
 O         0.8975104780        5.9498416971       12.7406135499
 C         2.7933071460        7.7047933219       11.9384231908
 C         0.8967275791        8.4884468822       10.3767859209
 H         0.3734738577       -7.2544824959       -3.6830978763
 H        -0.6816033306       -6.7688434254       -2.2781319758
 H        -1.4359337194       -7.3739135181       -3.6903343845
 H        -2.1092139498       -5.8940509404       -7.7923491823
 H        -2.6191021081       -6.4834081743       -6.2655244155
 H         0.4868500572       -3.3027581527       -4.4863666222
 H         0.8433336985       -3.3914017323       -6.2562399251
 H         1.7950810523       -4.4036104930       -5.2130807634
 H         1.3650963954       -6.4634292881       -5.7977432981
 H        -0.3007217256       -7.2740246509       -5.8101086777
 H         0.1306113660       -6.2593019568       -7.2146126978
 H        -4.2932111709       -4.3034411155       -6.2182417746
 H        -3.9088560529       -4.4867076982       -7.9594143807
 H        -7.2306844370       -6.5452855428       -4.1045223585
 H        -5.4967036547       -6.6106458531       -4.5876498977
 H        -6.6193608281       -4.2481898474       -8.8124657571
 H        -6.8010735468       -3.3111590485       -7.3646637672
 H        -8.0187148968       -4.3973296642       -7.9392426388
 H        -8.4720992144       -6.2891670182       -6.9122579319
 H        -7.5281761880       -7.1665599873       -8.0281665120
 H        -7.4588564364       -7.3484594532       -6.1984886613
 H        -5.4730582715       -5.7874853038       -2.0402256974
 H        -6.8920962657       -4.8829457958       -2.3173588882
 H        -6.3496676328       -1.2788485275       -3.5894743177
 H        -6.1846572941       -0.3471515628       -2.0907087803
 H        -6.8775833704       -2.2012602053       -1.4473821291
 H        -6.0431074875       -2.2160433617        0.1284482215
 H        -6.6501434536       -3.8176200129       -0.5594580745
 H        -3.6450357991       -2.4023864535       -0.0387039910
 H        -4.2030343779       -3.9798348292        0.0755315708
 H        -2.9724180566       -3.7251787796       -1.2277145457
 H        -5.8152154067        1.1480738028       -3.9659306516
 H        -4.5276352699        1.1519371181       -2.9598906896
 H        -0.8087434830        2.8188670529       -4.9171500901
 H        -2.0214636725        2.7368799388       -3.5415127881
 H        -1.8260085584       -0.2673241810       -6.6680415412
 H        -2.1669864955        1.2257203262       -7.4202414935
 H        -3.4221738706       -0.0279269186       -7.4082107517
 H        -2.5310617863        2.8618798709       -6.2091541410
 H        -4.2392553687        2.5500607423       -6.5642920952
 H        -3.9559402739        3.1024581771       -5.0123023738
 H         0.9574504458        1.6023664306       -3.7168422957
 H        -0.1581978195        1.2301981028       -2.3898537200
 H         4.0522360997        1.3649784476       -0.9827158001
 H         4.2624290462        2.8362858514       -0.1544982328
 H         3.3707293612        3.8105843545       -3.8306495154
 H         2.7795003255        2.0452261266       -3.6117680395
 H         4.2655909839        2.7281982937       -2.8303208924
 H         1.8945188064        5.3576516467       -1.6417729407
 H         2.3450513618        4.5172377242       -0.1374166086
 H         3.5516445531        4.6578862499       -1.3798149254
 H         2.5821034230        1.6479232340        1.7378142746
 H         3.0829405805        0.2928434727        0.9266982381
 H         2.3705081405        0.2351161638        5.6874971953
 H         4.0069377428        0.4737742170        6.0352320037
 H         5.5974908275       -1.2150105680        1.6216887677
 H         3.8385638055       -1.5424356578        1.7100294249
 H         4.7721679475       -2.0857982398        3.0739078829
 H         6.0501575930        0.8549221755        4.8225748821
 H         5.8222574883       -0.9210577302        4.6926770794
 H         6.9087151161       -0.1276171649        3.6765128370
 H         1.8716789562        2.3856953812        5.7426872849
 H         2.8423890620        2.5044220794        4.2390474896
 H         2.5652912599        3.3681244039        9.0154295158
 H         4.1548907685        3.7247236779        8.4301277953
 H         5.1999474597        5.9683458270        5.7067615236
 H         5.6662636700        4.9895332361        7.1031120380
 H         4.5447228452        6.2612280645        7.3714766082
 H         1.9843398150        4.7306375097        4.7853434051
 H         2.6353382278        6.3186918676        5.2823600381
 H         3.6123211014        5.2665301514        4.1118734799
 H         3.4155336105        4.8931466088       10.8624570318
 H         4.4164451930        5.7998848574        9.7393004023
 H        -0.5099041267        5.8050554951        9.6535829713
 H         0.2012544368        4.2751012949       10.3773674008
 H        -1.1948837847        5.1084153012       11.0601984856
 H         3.6071606953        8.2208348503       11.5264836352
 H         3.1772395913        6.8127823296       12.4637781746
 H         2.3176442446        8.4155233786       12.5665418512
 H         1.4030806752        9.3080637387        9.8857293254
 H         0.0947452466        8.1812090899        9.6772202702
 H         0.3575945712        9.0411866209       11.1345581952
 Na       -2.2311065493       -2.3825180000       -4.0057814293
