155

 C        -0.4189765551       -7.1003385855       -3.7039303143
 C        -0.7281685190       -5.6304116704       -4.0837576384
 C        -0.2226633318       -5.0996531812       -5.4827210582
 C        -1.5166315329       -4.5684185669       -6.1474835925
 C        -2.3706224136       -5.6684405947       -6.8354107811
 C         0.6705806986       -3.8520493127       -5.1926489747
 C         0.5901105682       -6.2078654070       -6.1624286256
 O        -1.1140466019       -4.8487511854       -3.2316382339
 O        -1.8857418085       -3.3781025932       -6.0740496046
 C        -3.7870979865       -5.1447644656       -7.0633389538
 C        -4.9699938300       -6.2765664282       -7.0270139698
 C        -6.4034939160       -5.6945183262       -6.9130189922
 C        -6.6249606326       -4.9897517567       -5.5133819307
 C        -6.2532392703       -5.8010808072       -4.1532613428
 O        -4.7106909837       -7.4302503567       -7.1905714322
 O        -7.1642916327       -3.9258944135       -5.4850701073
 C        -6.7842577806       -4.6096549657       -7.9314393739
 C        -7.4994934406       -6.8042410146       -6.8667984128
 C        -6.3791153692       -4.7382128000       -3.0416426095
 C        -5.1298388441       -3.9678655354       -2.8921990259
 C        -4.9403655970       -2.9801203571       -1.7050984916
 C        -4.5657770202       -1.5362116145       -2.2374506311
 C        -5.7412293042       -0.5376694209       -2.7234518446
 C        -6.2261355563       -2.8436307985       -0.7521377088
 C        -3.7734111954       -3.5938117824       -0.7780998164
 O        -4.1530890883       -4.1906616115       -3.5583771667
 O        -3.3821074785       -1.0997720995       -2.2598617500
 C        -5.0231556353        0.4914269951       -3.5336300126
 C        -4.2059361949       -0.0893264775       -4.7412734696
 C        -3.2247084262        0.9816232353       -5.4517994407
 C        -1.8208045167        0.8484652189       -4.5894324906
 C        -0.9944443410        2.1851036343       -4.4004665469
 O        -4.1926111164       -1.2443373292       -5.0032845743
 O        -1.2739569826       -0.1854768922       -4.2634561935
 C        -2.8877588105        0.6769232020       -6.9114909674
 C        -3.7336076227        2.4160337515       -5.3597113054
 C         0.2967186285        1.9499074493       -3.4334571665
 C         0.8059593237        3.3160240236       -2.9083538415
 C         2.1709676717        3.4465530559       -2.1118778462
 C         2.2852735316        2.3296622974       -0.9221255693
 C         3.5070934832        2.4644026718        0.0413091186
 C         3.3049498247        2.9852908058       -3.1396930333
 C         2.3886531172        4.8481259115       -1.5133466254
 O         0.2350427956        4.3132861348       -3.1950587816
 O         1.5456186571        1.3611788832       -0.8839408111
 C         3.2697266379        1.5865547825        1.2287393287
 C         4.5260562162        1.3989913540        2.0661822992
 C         4.7044306762        0.2141252620        3.0221992338
 C         3.3567858869        0.1636671867        3.8820205652
 C         3.0991993651        0.9339432062        5.1764715035
 O         5.3413542848        2.2914358841        2.0497680054
 O         2.3737775073       -0.4900773944        3.5038104747
 C         4.7890182703       -1.1598610002        2.4111239400
 C         5.9898332541        0.4010024858        3.9560561718
 C         3.1529421077        2.3809451982        5.0387711636
 C         4.0257224363        3.1084792427        6.0911425513
 C         3.5621846411        4.4969272364        6.5809139009
 C         2.4492361273        4.2959227712        7.8197100031
 C         2.8282079678        3.8762697356        9.2889721211
 C         4.8060036282        5.2812519524        7.1438973927
 C         2.7502295897        5.3664320826        5.6336191964
 O         4.9664280986        2.6225984253        6.6418077101
 O         1.2752755976        4.4420272554        7.4871475739
 C         3.2390017201        5.1700884658       10.2208431102
 C         2.5238924883        6.4210250574        9.8714925131
 C         1.6896063106        7.1781916789       10.9321678230
 C         0.4334248505        6.3765988078       11.2768193889
 C        -0.6343554610        6.1655538646       10.2148454257
 O         2.7139485623        6.9039730857        8.7487189640
 O         0.2584988852        5.9327866369       12.4090819122
 C         2.4850567880        7.2783024417       12.2537897090
 C         1.4420414352        8.6023264306       10.4146024313
 H         0.5127564163       -7.0670099921       -3.1617772181
 H        -1.1525289161       -7.5837032793       -2.9688493087
 H        -0.5442743789       -7.7700732847       -4.5893342139
 H        -1.8574664484       -6.0014456698       -7.7593428820
 H        -2.3191266374       -6.5175439295       -6.2313561625
 H         0.0375227769       -3.1410642357       -4.6500182227
 H         1.1155169182       -3.5808227340       -6.1079072440
 H         1.4544426053       -4.0723150058       -4.4240719092
 H         1.3622804945       -6.4683660035       -5.4218786173
 H        -0.0734763003       -6.9854196720       -6.5509947349
 H         1.0758314422       -5.7014197442       -7.0730922353
 H        -4.0721400458       -4.5631654745       -6.1523564707
 H        -3.8221429004       -4.5442975347       -7.9055636156
 H        -7.1161103822       -6.4989633594       -4.0924590460
 H        -5.3209230377       -6.2774726342       -4.3126623892
 H        -6.6807736181       -5.0137768968       -8.9959432000
 H        -6.0726039139       -3.7872005291       -7.9212655772
 H        -7.7815000285       -4.1137715401       -7.9263026194
 H        -8.4648851503       -6.4627931868       -6.4899084758
 H        -7.5402276111       -7.3893702293       -7.8183032325
 H        -7.3306599348       -7.4913457809       -6.0107786322
 H        -6.7111218587       -5.0820034540       -2.0359377662
 H        -7.0653645799       -3.9460487711       -3.3575358039
 H        -6.3730144970       -1.1625255538       -3.3879311266
 H        -6.3382570207       -0.0498075196       -1.9657011250
 H        -7.1496992274       -2.6106565948       -1.1707208738
 H        -5.8826542922       -2.0847921652        0.0546332514
 H        -6.4387720315       -3.8177879752       -0.3623088662
 H        -3.7284910670       -2.9500480075        0.1505603369
 H        -4.0501337993       -4.6420824588       -0.7155861297
 H        -2.7901731976       -3.5745510768       -1.3146614949
 H        -5.7648459442        1.1445221414       -3.9347040979
 H        -4.4107035093        1.0469189780       -2.7717730469
 H        -0.6291684345        2.3211928131       -5.4443421459
 H        -1.6173976865        3.0082696068       -4.0027002295
 H        -2.1271762466        1.3111540885       -7.1815835577
 H        -3.7039580135        0.8269844729       -7.5397466927
 H        -2.4361888163       -0.3182808571       -6.8966910095
 H        -3.2042538570        3.1402792960       -6.0628829872
 H        -4.8190541208        2.3587489572       -5.6311712416
 H        -3.7193176078        2.8503505618       -4.3553931987
 H         1.2461540443        1.5954620254       -3.7853018812
 H         0.0526843279        1.3815086472       -2.5431749310
 H         4.3350071729        2.1567440349       -0.6131942077
 H         3.6763382731        3.4985913053        0.3972947097
 H         3.1075781845        3.4849136986       -4.0987473463
 H         3.1064831177        1.9837159229       -3.6009719021
 H         4.3875581778        3.1328869977       -2.7822396156
 H         2.8387429312        5.5083188931       -2.2634053324
 H         1.3801643643        5.3060769191       -1.1981639105
 H         3.0349982991        4.7749839340       -0.6804798677
 H         2.5515796397        2.0167434378        1.9819971721
 H         2.8183507672        0.6796874266        0.8180791801
 H         2.1400123534        0.6343295491        5.5817208040
 H         3.9676900843        0.6486790186        5.8906350267
 H         5.4647345655       -1.0152094051        1.5383627980
 H         3.8202907236       -1.4230113917        1.9265911993
 H         5.2426804252       -1.9623141360        3.0565621998
 H         5.9791387505        1.1933530204        4.6576875023
 H         6.1442592346       -0.4507528660        4.6078786761
 H         6.9673557584        0.5575895638        3.3892915171
 H         2.1589022993        2.8284556814        5.0383057181
 H         3.6617978164        2.7004196342        4.1641695616
 H         2.0442144666        3.2873878964        9.6216255137
 H         3.6980524871        3.2248366204        9.3427804710
 H         5.6703049717        5.2483229443        6.4779848214
 H         5.2106237114        4.9859309782        8.0972363945
 H         4.4010097112        6.3200726415        7.2347625231
 H         1.7595174824        4.9187913803        5.4243586279
 H         2.5705630420        6.3625757352        6.1530379449
 H         3.2701337946        5.4525697576        4.5869051077
 H         3.1584907333        4.8475118840       11.2633398186
 H         4.3419650940        5.4016494941       10.2445769912
 H        -0.3374885071        5.2604233827        9.6010304043
 H        -1.6415214432        5.9486714982       10.6210501089
 H        -0.7137184724        6.9596588491        9.5217588614
 H         1.8518408482        7.8708628316       12.8459660629
 H         3.5014659633        7.8212717912       12.1801048345
 H         2.7376324653        6.2929214157       12.7259560017
 H         2.3801917443        9.1613964186       10.2748318198
 H         0.8676257327        8.6789588782        9.4561740717
 H         0.8348136214        9.2452001828       10.9891334771
 Na       -2.3212271307       -2.5142632594       -3.9751669981
