155

 C        -0.2196236470       -6.4847690189       -3.3934909600
 C        -0.5712612336       -5.1705010621       -4.1015243924
 C        -0.1735368853       -4.8016985899       -5.5646017934
 C        -1.4644639637       -4.3470338013       -6.2492288579
 C        -2.3021805385       -5.3606586368       -7.0257913580
 C         0.8204698390       -3.5987188773       -5.2681042388
 C         0.5653707278       -5.9594295574       -6.2732457050
 O        -1.0376147433       -4.2856884712       -3.4682249083
 O        -1.8015009683       -3.1519178585       -6.1405028600
 C        -3.8269233659       -5.1215690685       -7.2563792806
 C        -4.6971057402       -6.3188952044       -6.9504108453
 C        -6.2557408508       -6.0498003940       -7.0671239511
 C        -6.5861273684       -5.1919780872       -5.8543954884
 C        -6.7081938414       -5.7396854945       -4.3984762485
 O        -4.2433809450       -7.3613188068       -6.5163827791
 O        -6.8980634734       -4.0274863459       -6.0359899605
 C        -6.6586617688       -5.2520357462       -8.3205517820
 C        -6.9297839562       -7.4139453983       -6.9542582274
 C        -6.6464675353       -4.6863500121       -3.3344752509
 C        -5.2675495505       -4.1096773983       -3.1435662663
 C        -4.9829393001       -3.3290180480       -1.7197861051
 C        -4.4414216573       -1.8111925009       -2.0434401120
 C        -5.4632414368       -0.6616779993       -2.4048393506
 C        -6.3609580757       -3.2065229939       -0.8980105967
 C        -3.8932000699       -4.1378250374       -0.8569841282
 O        -4.3773532874       -4.1948078113       -3.9357117572
 O        -3.2644441849       -1.5260381947       -1.9485876971
 C        -4.7389895552        0.5459934175       -3.0652168116
 C        -4.0626722806       -0.1108253449       -4.4849126805
 C        -3.0213764740        0.8160830119       -5.3702607348
 C        -1.5559604415        0.7118781141       -4.7482941150
 C        -0.5852728936        1.9792840829       -4.8538848141
 O        -4.2599774013       -1.2541777063       -4.7613355960
 O        -1.0912377482       -0.2226024398       -4.1043456337
 C        -2.9553010831        0.2507301410       -6.7673227173
 C        -3.5649552493        2.2231888916       -5.1882932194
 C         0.6889116714        1.9067641674       -4.0911244023
 C         0.9756224019        3.2062843664       -3.3855668713
 C         2.2946827896        3.2677296245       -2.4765409933
 C         2.2037508887        2.2155438866       -1.3293868209
 C         2.7360785013        2.7442549084        0.0803022585
 C         3.5260552645        2.8090757711       -3.3385731864
 C         2.4784691995        4.7158457801       -1.9829132911
 O         0.1611656059        4.1456479811       -3.3189922400
 O         1.7542255547        1.1198604329       -1.5531471850
 C         2.8749081854        1.5898668037        1.0738848203
 C         4.1434262991        1.9552563650        1.9955349359
 C         4.6040222808        0.7910608439        2.9727575936
 C         3.2835434659        0.5433673811        3.8709175667
 C         3.2271282307        0.9812310663        5.3512280083
 O         4.7441214890        2.9844607220        1.7535671478
 O         2.3911399799       -0.0496323633        3.2933493997
 C         5.1001197547       -0.4191517077        2.1697405978
 C         5.8322805906        1.2598317758        3.7841135710
 C         3.2272284188        2.4656916678        5.4638847136
 C         3.9510485826        2.9653027197        6.7576791426
 C         3.7422311449        4.3527793725        7.3451204453
 C         2.5008269841        4.1147186818        8.2243938373
 C         2.7328201724        3.7742291319        9.7498896881
 C         5.0228297697        4.7882647205        8.0965372717
 C         3.4784383849        5.3631787068        6.2261768103
 O         4.6921263010        2.1887176270        7.3492341110
 O         1.4050294735        4.1056165923        7.7546737249
 C         3.2661612923        4.9260059288       10.7141008629
 C         2.2986551823        6.1495332795       10.2782723260
 C         1.3926995880        7.0311815707       11.2719517124
 C        -0.0750995228        6.8331261504       10.7642686939
 C        -0.5250580873        7.7465910097        9.6624123816
 O         2.2900164117        6.5064493018        9.1606090876
 O        -0.8104941539        6.0318813799       11.2970915097
 C         1.4670547189        6.7335519242       12.7533566905
 C         1.8258710936        8.4526216697       11.0289245740
 H         0.8658241787       -6.7922664396       -3.5687412853
 H        -0.4924207475       -6.3244211086       -2.3837862765
 H        -0.7337544447       -7.3482378486       -3.9467465259
 H        -1.8577678649       -5.4963824572       -8.0749626529
 H        -2.0803281446       -6.2725312203       -6.4106706170
 H         0.2481274213       -2.7208181769       -5.0268749017
 H         1.4744492498       -3.2970951713       -6.1184436752
 H         1.4026396780       -4.0306566678       -4.5111197508
 H         1.4298926436       -6.2218535455       -5.8102825752
 H        -0.0382870682       -6.8619541786       -6.2727511830
 H         0.7912608329       -5.5934810527       -7.2455828916
 H        -4.3329837549       -4.2742117574       -6.6177897308
 H        -3.9563859930       -4.7124611818       -8.2196003440
 H        -7.5779654322       -6.3963320452       -4.3250658594
 H        -5.8707662337       -6.4092521641       -4.2676711160
 H        -6.3249076554       -5.7565014902       -9.1544959245
 H        -6.0080394892       -4.3525292682       -8.2459606218
 H        -7.7086327079       -4.9875058433       -8.4751478684
 H        -8.0308622603       -7.4378689571       -6.8585375176
 H        -6.8123825873       -8.0457740171       -7.7634674344
 H        -6.2978934975       -7.8193414903       -6.1555919040
 H        -6.9786570882       -5.1407894544       -2.3658225362
 H        -7.2432632224       -3.8102714798       -3.5979159352
 H        -6.3584952606       -1.0300799410       -2.9554399241
 H        -5.8676534694       -0.3606926306       -1.4169953671
 H        -7.0978951842       -2.6693478613       -1.4462627335
 H        -6.2441873787       -2.7390234125        0.0599750690
 H        -6.6326453483       -4.1716133056       -0.5694310081
 H        -3.7829474619       -3.8477338554        0.1544453998
 H        -4.3678521374       -5.1442404018       -0.8055815985
 H        -2.9705741596       -4.1735564663       -1.4010427261
 H        -5.4862016717        1.2808820127       -3.4158084215
 H        -4.0053898096        0.8545473936       -2.2704792119
 H        -0.5979539213        2.0922102605       -5.9319712389
 H        -1.2123905519        2.7301191448       -4.3996896088
 H        -3.9576450077       -0.1958543362       -7.0335409407
 H        -2.0633048490       -0.4645836919       -6.8029839602
 H        -2.6788108693        1.0122675187       -7.5081058077
 H        -3.2467306212        2.9800566429       -5.8643811027
 H        -4.6606031227        2.1804632209       -5.3089166578
 H        -3.3801509503        2.4964319950       -4.1675443834
 H         1.4752699101        1.4516176006       -4.7335123415
 H         0.5897973102        1.1354943761       -3.2420302177
 H         3.7428210326        3.1127575147       -0.0923398466
 H         2.0327823671        3.5545312839        0.3292716949
 H         3.6384665841        3.6172836450       -3.9785589182
 H         3.5602959691        1.8389626877       -3.8054003707
 H         4.4405682304        2.8769514946       -2.8695328770
 H         2.9600407808        5.3091761311       -2.7754258437
 H         1.5456306096        5.0670151349       -1.8565220863
 H         3.1077778687        4.8261405597       -1.0503778630
 H         1.9145398048        1.5486344161        1.6086598164
 H         3.0968496128        0.6157645609        0.6048606951
 H         2.3507447179        0.5962173397        5.8042001229
 H         4.1614026905        0.5347969223        5.7351512503
 H         5.7257455647        0.0181312633        1.3936154893
 H         4.3537655826       -1.0080761670        1.7031204259
 H         5.7333689004       -1.1130319225        2.7511547350
 H         5.8031245084        2.0972547988        4.4756961535
 H         6.1654210918        0.4460225658        4.3715929567
 H         6.7324589706        1.3741684248        3.1711318669
 H         2.1975598262        2.8303723581        5.1552574330
 H         3.8089932423        2.8633984302        4.6334674447
 H         1.8157212642        3.4002705243       10.1373799480
 H         3.5252664071        2.9759276429        9.6989341959
 H         5.7904088380        5.0996905704        7.4566437618
 H         5.3331031973        3.8938787939        8.7176159338
 H         4.9033565391        5.6294371517        8.7409399883
 H         2.5769291896        5.0237630850        5.7746360960
 H         3.2825607133        6.3474770913        6.5568158145
 H         4.2724664158        5.3964023721        5.5554010360
 H         3.1345343934        4.5130663151       11.6943517789
 H         4.2893724291        5.2436822712       10.4541575177
 H        -1.4903505284        8.2321318689        9.8705706300
 H         0.1878353483        8.3877192522        9.3113712221
 H        -0.7120815398        7.1285572594        8.7642127506
 H         0.7257455194        5.9271230245       12.9852462821
 H         1.2139622211        7.6244061904       13.2468959788
 H         2.4040150946        6.3261939108       13.1573259889
 H         2.8445845548        8.7120169548       11.3457647688
 H         1.8897226916        8.7855515805        9.9999374201
 H         1.2307901272        9.1511356656       11.5524730616
 Na       -2.4940222658       -2.5159200729       -4.0573220432
