155

 C         0.3180529712       -6.1529683370       -3.4891409148
 C        -0.2603163125       -4.8573375535       -4.0440682263
 C        -0.1362141295       -4.5993274368       -5.5990050989
 C        -1.5280451973       -4.3893695337       -6.3731541422
 C        -1.8538400281       -5.5642813986       -7.4439325502
 C         0.7226002493       -3.2702516953       -5.7331623859
 C         0.6298329479       -5.7111466609       -6.3181005877
 O        -0.9057400087       -4.0756361317       -3.2576888677
 O        -2.2895932135       -3.5119371037       -6.1275076896
 C        -3.4100051373       -5.4273982916       -7.7612802150
 C        -4.3400814737       -6.2576989366       -6.9098580727
 C        -5.9301577361       -6.1793420272       -7.1434864977
 C        -6.3476075712       -5.3124327730       -5.9250670473
 C        -6.2988915158       -5.8107036891       -4.4396275056
 O        -3.8546286010       -6.8315466979       -5.9674213121
 O        -6.8251857139       -4.1757381907       -6.0929711679
 C        -6.2265010079       -5.4804834551       -8.4763296139
 C        -6.6415890039       -7.5462532256       -7.0452174062
 C        -6.5734571503       -4.5932785632       -3.4720680574
 C        -5.3405343849       -3.8343460773       -3.1862134848
 C        -5.1737755784       -3.3020181505       -1.7605782708
 C        -4.3569206313       -2.0207286046       -1.7981997229
 C        -5.1337598796       -0.6707754235       -2.1297750829
 C        -6.5176690246       -3.0091149303       -1.0028077269
 C        -4.2372413601       -4.4272376312       -1.0274189740
 O        -4.4059915679       -3.7085374411       -3.9568259041
 O        -3.1395827184       -2.0371301920       -1.6565341154
 C        -4.2975784199        0.1857134879       -2.9729692367
 C        -4.1774039369       -0.1947557390       -4.5132205850
 C        -3.2911975291        0.6940576160       -5.4616880219
 C        -1.6887896662        0.5199233352       -4.7586234453
 C        -0.8345307161        1.8241627990       -5.0092813228
 O        -4.7053239011       -1.1249574895       -5.0421217411
 O        -1.2202820613       -0.4188797626       -4.1988313799
 C        -3.1756111027        0.0531072427       -6.8093440015
 C        -3.8578495018        2.1167496342       -5.4501621640
 C         0.5303707580        1.8207490434       -4.2751297814
 C         0.8926710475        3.0847629979       -3.4596098556
 C         2.3610563805        3.1474570669       -2.9320618358
 C         2.3750249938        2.1889049814       -1.6190952167
 C         2.6352694338        2.8404544436       -0.2256288257
 C         3.3891522867        2.5158756304       -4.0154034156
 C         2.7878740767        4.7199686928       -2.7483914724
 O         0.0466923983        3.9400810901       -3.2926717854
 O         2.3043113079        0.9960006743       -1.7743104967
 C         2.9823854733        1.8183030945        0.8218067821
 C         3.7735843550        2.3055337693        2.0898150359
 C         4.4629021369        1.1715790008        2.9437595346
 C         3.3573099415        0.6961076250        3.9473563098
 C         3.6625952673        0.5654549813        5.4893174010
 O         3.9817452754        3.4955253119        2.3045436603
 O         2.3083839781        0.2126836153        3.5579120220
 C         4.8886951314       -0.0922360189        2.1287740527
 C         5.6129410820        1.8365030006        3.7909089134
 C         3.2497935084        1.9473856852        6.0813478700
 C         4.1819009643        2.5501127823        7.1574306453
 C         4.1466760184        4.1131961694        7.5765610954
 C         2.8026246035        4.1595475715        8.4264834889
 C         2.8337812037        3.9527172617        9.8736970655
 C         5.3073157503        4.4901123300        8.4054487197
 C         3.9063664690        5.0479817121        6.3400014085
 O         5.0433425868        1.8345712916        7.5641165809
 O         1.7200906464        4.1949234116        7.8734388487
 C         1.5252602276        4.5018389442       10.6124699250
 C         1.6919948411        6.0954203004       10.6599225840
 C         0.9336997659        7.1090325638       11.5672354837
 C        -0.4505576753        7.3494268091       10.6777392740
 C        -0.4129284184        8.2618398314        9.4616514466
 O         2.6672673118        6.4645461946        9.9546355327
 O        -1.3437815743        6.6081827119       10.8926586233
 C         0.8136700538        6.4231234775       12.9617072180
 C         1.7760390845        8.3771634528       11.7376352371
 H         1.2933779514       -6.4672066941       -3.9748788626
 H         0.2481226532       -6.1596037090       -2.4461597917
 H        -0.3800672447       -7.0338704038       -3.8496992032
 H        -1.2742808007       -5.4634132996       -8.3753114105
 H        -1.6406204439       -6.4966585358       -6.8842721294
 H         0.4128721373       -2.5774977848       -4.9223361436
 H         0.5228380986       -2.8013806566       -6.6589777629
 H         1.8289257044       -3.4778715840       -5.7248447791
 H         1.5425403286       -5.8066173833       -5.8154357550
 H         0.1490834548       -6.6693199049       -6.4495729268
 H         0.8993316975       -5.5637614668       -7.3816413513
 H        -3.6307819180       -4.4051863566       -7.6101271484
 H        -3.4887346694       -5.5968060058       -8.8891875687
 H        -7.2288539453       -6.4067501918       -4.3842129250
 H        -5.4726634795       -6.4934098883       -4.2407408957
 H        -6.1930864367       -6.2677133391       -9.2782767269
 H        -5.5847654243       -4.6390273432       -8.6851727689
 H        -7.2409610773       -5.0569989543       -8.4019857427
 H        -7.7067098976       -7.3802737351       -6.7520057215
 H        -6.5091926867       -8.0083650832       -8.0701167208
 H        -6.1543337917       -8.1728561570       -6.2574143295
 H        -7.0286373970       -4.9538779077       -2.5444223035
 H        -7.3706011877       -3.9690349217       -3.9851919029
 H        -6.0667248911       -0.9204936856       -2.6717633934
 H        -5.5113465679       -0.0651266698       -1.2889415480
 H        -7.2702765041       -2.4916466789       -1.4316090038
 H        -6.3002404548       -2.5848158400        0.0236986149
 H        -6.9248707622       -3.9617160100       -0.9492219027
 H        -4.2262564912       -4.2190890108        0.0748903532
 H        -4.4394407071       -5.4895298616       -1.1268712363
 H        -3.2964613458       -4.3180231478       -1.5684484195
 H        -4.5953141549        1.2483930926       -2.9336528499
 H        -3.2923004413        0.0688613097       -2.5164926952
 H        -0.8962263482        1.8856840931       -6.1456325126
 H        -1.4280258939        2.7216127806       -4.7465948081
 H        -4.1231980105       -0.1411774511       -7.3311484334
 H        -2.5473896930       -0.8782653699       -6.8645223443
 H        -2.6632143126        0.8990067266       -7.4164556562
 H        -3.4888002090        2.7363575961       -6.2900170895
 H        -4.8993927667        2.1380898279       -5.3434714687
 H        -3.4897521221        2.5678029464       -4.5591942111
 H         1.4316605101        1.6269093564       -4.9209613421
 H         0.5003623405        0.9777174308       -3.5463758967
 H         3.4056384574        3.6303321454       -0.4572171916
 H         1.7798781035        3.4527936240        0.1317428097
 H         3.2406475831        2.7246110865       -5.0381139927
 H         3.3279561271        1.4247197202       -4.0024459174
 H         4.4288562036        2.7464306708       -3.7366720764
 H         3.1275559373        5.0735445819       -3.7567289679
 H         2.0436613154        5.3966058814       -2.4607402951
 H         3.6405332481        4.7483893874       -2.0483243590
 H         2.0784189527        1.2726184433        1.2280918750
 H         3.5978027509        1.0212040338        0.3507482631
 H         3.1278131153       -0.2638807132        6.0038053280
 H         4.6939212430        0.2395402141        5.7378978803
 H         5.3870550745        0.2649307038        1.2590081888
 H         4.1202823144       -0.7615276132        1.7663101917
 H         5.6190800175       -0.6959683431        2.6374258977
 H         5.1962455944        2.5378266679        4.4338628537
 H         6.2783166300        1.2259636090        4.3124238974
 H         6.2010489903        2.4419811964        3.0703655277
 H         2.3228045017        1.8737389351        6.5529847801
 H         3.1004007891        2.5835109017        5.2013281683
 H         3.0685708596        2.9258830086       10.0929196152
 H         3.5178880726        4.4415834446       10.5112500927
 H         6.2232485652        4.7538961759        7.8500775533
 H         5.5695427710        3.7556539063        9.1017866785
 H         4.9527768696        5.3099292241        9.0339446266
 H         2.9586413921        4.8991059399        5.9770002668
 H         4.0094864894        6.0691899216        6.6119375804
 H         4.5976792472        4.8619310486        5.5354396014
 H         0.6188076537        4.1894748301       10.0409032420
 H         1.5604017946        3.8787291824       11.5351617802
 H         0.2733871790        9.0949456782        9.7534021625
 H         0.0231945084        7.8227201114        8.5817418449
 H        -1.3781213239        8.5926838953        9.1930895269
 H         0.1696112946        5.5789627991       12.9176902679
 H         0.3755995308        7.1682779471       13.7166644967
 H         1.7918739485        6.0162088831       13.3336335622
 H         2.6996897348        8.2097384324       12.2508078422
 H         2.0106318003        8.9691172673       10.8404340879
 H         1.2950743350        9.1087927735       12.3683284558
 Na       -2.5616594637       -2.3532878496       -3.9714679576
