155

 C         0.3635364063       -5.9524988089       -4.1134503631
 C        -0.0287029543       -4.5731522229       -4.4774090603
 C         0.2554177813       -3.9232252245       -5.9483921310
 C        -1.0679652469       -4.2603278065       -6.6987174301
 C        -1.1648778913       -5.3334544278       -7.9048390104
 C         0.4433900632       -2.4056662545       -5.8502729422
 C         1.4795743479       -4.5107765746       -6.7550723119
 O        -0.8577284332       -3.9723232930       -3.7780981176
 O        -2.0514240720       -3.7018804981       -6.4209482132
 C        -2.6540995539       -5.6722302840       -8.0231118108
 C        -3.0395991383       -6.6312326197       -6.8957048164
 C        -4.4292659781       -7.3680003804       -6.9453923031
 C        -5.3107381568       -6.7616363124       -5.6813884157
 C        -4.8181458373       -7.0550874763       -4.2206114792
 O        -2.3809311645       -6.7510292847       -5.9014701676
 O        -6.3455053423       -6.1470307184       -5.8649437839
 C        -5.1895038617       -7.2834894853       -8.1889023938
 C        -4.1266594671       -8.8092201795       -6.5642330833
 C        -5.5214103193       -6.0622012805       -3.2818639111
 C        -4.9249556503       -4.6592620653       -3.2247492749
 C        -5.2566780856       -3.6484395714       -2.1520999007
 C        -4.9418435892       -2.2042824249       -2.6927432628
 C        -5.9469571662       -1.6415387490       -3.7433012229
 C        -6.7248413333       -4.0054398350       -1.6986413806
 C        -4.1698346209       -3.7856260236       -1.0943947756
 O        -4.1096390177       -4.3981365734       -4.0686507909
 O        -3.8573983219       -1.6773592880       -2.4053003521
 C        -5.6815540727       -0.2032090871       -4.0591604225
 C        -4.3421461501        0.0233904720       -4.7194150479
 C        -3.5647561801        1.4816485592       -4.4878238696
 C        -1.9906638843        1.0650670353       -4.1816989332
 C        -1.1606657442        2.1778190490       -3.5719151964
 O        -3.8592499541       -0.7066858489       -5.6198421597
 O        -1.6060091556       -0.0516477726       -4.4817375924
 C        -3.6152363081        2.1699358699       -5.8468371733
 C        -4.1561172001        2.3955108091       -3.4267898345
 C         0.3400471160        1.8968504731       -3.7455973642
 C         1.2202214414        3.1338724318       -3.9355145384
 C         2.7186874703        2.9075309867       -3.5336550990
 C         2.7171777939        2.4715241986       -2.0198889649
 C         3.1977379091        3.3561513021       -0.8282254586
 C         3.2690810332        1.7389329262       -4.3115545179
 C         3.5010239040        4.2042681479       -3.6338065341
 O         0.7941079542        4.2067820180       -4.2408435222
 O         2.3720641093        1.3690715926       -1.6956874099
 C         3.1815834995        2.7493610009        0.5884745726
 C         4.5051532212        3.0290048007        1.3159358864
 C         4.5229511274        2.4440822573        2.8268650333
 C         3.2510146169        2.8365834096        3.6162781775
 C         3.2182784014        2.0284697928        5.1175676766
 O         5.4556833252        3.6284515240        0.8769468182
 O         2.5233623668        3.7378023290        3.2962199537
 C         4.7066356391        0.8544302401        2.5648057356
 C         5.7890575455        3.0698196368        3.4704504472
 C         3.5470910765        2.8610323398        6.3346443084
 C         3.5415687813        2.0286797614        7.5989348649
 C         3.6538680207        2.7097102978        8.9938980925
 C         2.4246489819        3.8271508440        8.9911404244
 C         1.2974112921        3.6395311339       10.0308183244
 C         3.4949916783        1.5603921764       10.0865908951
 C         4.8581659255        3.4919852125        9.2588282800
 O         3.5136155226        0.8093729031        7.4686120376
 O         2.5216414816        4.8658848990        8.3284289600
 C         0.1641253019        4.6994004552       10.1104489141
 C        -0.0839289303        5.5028041221       11.3907766939
 C        -1.0835985730        6.7684757359       11.2969181841
 C        -0.1323072172        8.0094172480       10.9718731048
 C         0.2875248115        9.0006637782       12.0165508876
 O         0.4541673715        5.1945724678       12.4755274505
 O         0.0745270269        8.3936920397        9.8615468090
 C        -2.1796616342        6.5633289550       10.2883133774
 C        -1.7535363701        6.9451169565       12.6565912442
 H        -0.0507860861       -6.1810167640       -3.1866324221
 H        -0.0749789346       -6.6879029353       -4.8233525648
 H         1.5088057789       -6.0124839703       -4.1761129767
 H        -0.8381387138       -4.8062254869       -8.7962741981
 H        -0.6912217400       -6.2896940128       -7.9139446750
 H         0.0573540774       -1.9212399434       -4.9516691973
 H        -0.1046433531       -1.8511602677       -6.6851614036
 H         1.4877980259       -2.2166739159       -5.9628882725
 H         2.4182209775       -4.3998514199       -6.2545065327
 H         1.3469154347       -5.5353231884       -6.9422333753
 H         1.5390842073       -3.9789877982       -7.7348617271
 H        -3.1882590609       -4.7370720003       -8.0872917498
 H        -3.0502213909       -6.1987654689       -8.8816639997
 H        -4.9983071925       -8.0891711223       -3.8692989680
 H        -3.7183995166       -6.8542567021       -4.2808136903
 H        -4.5826288973       -7.4877542427       -9.1272991546
 H        -5.6310025078       -6.3343549313       -8.2218669313
 H        -6.0367066520       -7.9843809029       -8.1729713079
 H        -5.0718666592       -9.3433406426       -6.5648733908
 H        -3.4330640198       -9.3518453257       -7.2627981334
 H        -3.6912354187       -8.8771011954       -5.5849778952
 H        -5.6110553433       -6.4881629583       -2.2882594972
 H        -6.5361707059       -5.8321993652       -3.6995347288
 H        -5.9402475338       -2.2782020271       -4.6451939078
 H        -7.0084807607       -1.8128453505       -3.3877591338
 H        -7.3244158194       -4.2272254835       -2.4895900348
 H        -7.1463605995       -3.0774783598       -1.1851392508
 H        -6.7938634219       -4.8247219474       -1.0138910533
 H        -4.1313556265       -2.9600011410       -0.4104544817
 H        -4.0624479447       -4.7212498105       -0.5046213072
 H        -3.2142486476       -3.9034658119       -1.6079701029
 H        -6.3270022476        0.2109183965       -4.8862084784
 H        -5.9929079404        0.4027213387       -3.2287135228
 H        -1.4345212985        3.1619789431       -4.0157401181
 H        -1.3907931905        2.1164799779       -2.4872802933
 H        -4.4988348228        2.7374566567       -6.0455286836
 H        -3.5560767913        1.4466053687       -6.5993229725
 H        -2.8274332033        2.8933319345       -5.9220585869
 H        -3.8965038791        3.4258416816       -3.6435559301
 H        -5.2919880306        2.4457934398       -3.5848883721
 H        -3.7215107606        2.2291353671       -2.4336608204
 H         0.4660581974        1.1692075504       -4.6256503432
 H         0.7007478905        1.3217956284       -2.9333465320
 H         4.2107404854        3.8025574336       -0.8800594522
 H         2.4303021280        4.2130874273       -0.6847343496
 H         2.9783409422        1.9692023643       -5.3654596751
 H         2.8636030815        0.7608271587       -4.0528874073
 H         4.3811982162        1.7631112180       -4.1996813862
 H         3.7207235440        4.4242710653       -4.6646890333
 H         2.8035692266        4.9543666754       -3.2807881975
 H         4.3788488643        4.3817626812       -2.9880525963
 H         2.4464330980        3.2554893767        1.2377701347
 H         3.0038889879        1.6649843016        0.4537396580
 H         2.1581199919        1.8008508627        5.0339032632
 H         3.8755348499        1.1472206469        5.0654795238
 H         5.6136559668        0.6651166689        1.9812456389
 H         3.8620893841        0.4669847450        2.0631414396
 H         4.9070419041        0.2922810810        3.4742932489
 H         5.5571257986        4.1113770256        3.5821235182
 H         5.8284408065        2.5868177354        4.4437861211
 H         6.6360776180        2.9513726756        2.6949669664
 H         3.0075716466        3.7729623149        6.4373753137
 H         4.6069449433        3.2358220662        6.2746787961
 H         0.9899917743        2.5736389479        9.8883559747
 H         1.7484260210        3.5166324289       10.9727113206
 H         4.4183534907        1.0843889506       10.3359274937
 H         2.7960350448        0.8759387612        9.5280542398
 H         3.0423919310        1.9362521974       10.9948883903
 H         4.8127527972        4.2749332568        8.5129063709
 H         4.7266656198        3.8389074399       10.3249418004
 H         5.8864436841        3.0378233034        9.0494112394
 H         0.4360382994        5.4960358645        9.3859653726
 H        -0.7524584268        4.2526321985        9.7101936401
 H        -0.2245436590        9.9125847471       11.8174518361
 H         0.2369620709        8.6504014214       13.0802447331
 H         1.3312226407        9.1804231719       11.8407131165
 H        -1.8084466997        6.6693117785        9.2946086725
 H        -2.8481326056        7.4658648418       10.3825976774
 H        -2.7891431671        5.7282448304       10.4272863427
 H        -2.5009808684        6.1222061379       12.7685540697
 H        -1.0246628002        6.7468256148       13.4245621821
 H        -2.2007772382        7.9315127737       12.6280546654
 Na       -2.5484992098       -2.5080453032       -4.4612581913
