155

 C         0.3928276918       -5.8923582272       -4.1631331267
 C        -0.3163659912       -4.6255948974       -4.6837393798
 C         0.2133919537       -3.9737431707       -6.1205928218
 C        -1.1211192762       -4.2928620915       -7.0810435333
 C        -1.1252328689       -5.3700777674       -8.1798326239
 C         0.4931434018       -2.5169541286       -5.9299925090
 C         1.4948531750       -4.7039861532       -6.5173453535
 O        -1.1093002443       -4.0748187503       -3.9525044999
 O        -2.0497236729       -3.4605763676       -6.9042202017
 C        -2.4953398060       -6.0518494451       -8.2078748070
 C        -2.7293001114       -6.7746821134       -6.8807687363
 C        -3.9641062484       -7.5920786464       -6.7091679454
 C        -4.7312046007       -6.7199197974       -5.6926322163
 C        -4.3085954075       -6.9333453206       -4.2260573533
 O        -1.8859660095       -6.7159297783       -5.9584256537
 O        -5.6570420192       -6.0266807709       -5.9454674154
 C        -4.8618246222       -7.5892562788       -7.9673135889
 C        -3.7439612257       -9.0328108730       -6.1633116253
 C        -5.2292823306       -6.0539372129       -3.3045478889
 C        -4.6431252935       -4.5264632459       -3.4457663477
 C        -5.1727197857       -3.5198785673       -2.2333257369
 C        -5.1538402452       -2.0493656510       -2.9260908089
 C        -6.3756951242       -1.4279499839       -3.5754796627
 C        -6.5684582756       -3.9306337226       -1.8020379134
 C        -4.2860453008       -3.7956640683       -1.0523611309
 O        -3.9026163235       -4.2726821614       -4.3710013241
 O        -4.1764791945       -1.3416733662       -2.7469473803
 C        -5.9867278541       -0.0202617072       -4.0258874791
 C        -4.4938018352        0.0718165157       -4.5876552601
 C        -3.4847027003        1.2427992983       -4.3314753978
 C        -2.0365437270        0.6909360264       -4.0255234099
 C        -1.1374962502        1.8246608808       -3.5112274147
 O        -4.2708156204       -0.6482392866       -5.5179507865
 O        -1.6895135128       -0.4923551447       -4.0958462324
 C        -3.5801271915        2.1962594267       -5.5063643012
 C        -3.8623438149        2.0252125053       -2.9791965579
 C         0.3744472596        1.5731350737       -3.5253639622
 C         1.0353114657        2.9343200620       -3.5466704503
 C         2.6026774379        2.9651614784       -3.1805123455
 C         2.7222057075        2.8635663225       -1.5386233798
 C         3.5314796288        3.8943351600       -0.7349158322
 C         3.4759976315        1.9043251446       -3.8426951269
 C         3.1375946779        4.3388820008       -3.5157566023
 O         0.4769448205        3.9971978457       -3.7045052893
 O         2.2912707381        1.8364535033       -0.9978385961
 C         3.4977163437        3.5327386814        0.8143340813
 C         4.8996854157        3.2083055186        1.3467890308
 C         4.8970985790        2.5112954595        2.8297514151
 C         3.6890145689        3.0308855352        3.7227489626
 C         3.0113294047        2.1515083588        4.7849101457
 O         5.9306358373        3.4176615570        0.7212190894
 O         3.2121501522        4.1507704338        3.6042939249
 C         4.5848196699        0.9950135491        2.4267740586
 C         6.1807839102        2.6471892826        3.7122789262
 C         3.6847971991        2.6880955761        6.0362457424
 C         3.0902576371        1.9302738654        7.3725994980
 C         3.2557342700        2.7267843023        8.8570906423
 C         2.3323499470        3.9397542955        8.7970351474
 C         0.8908705670        3.9330612323        9.4073345755
 C         2.8707063212        1.7633130876        9.9402882275
 C         4.6766042899        3.2464858974        8.9648328254
 O         2.6372125839        0.8480932809        7.4063472777
 O         2.5429764861        4.8560588476        8.0303826565
 C         0.2251240080        5.4175165553        9.6282856404
 C        -0.3923314422        5.4144789923       10.9816443407
 C        -1.3357793097        6.7204346271       11.2437838710
 C        -0.3758697768        7.8833515772       11.2871643103
 C         0.1146795296        8.5224614402       12.5926868911
 O        -0.0258230061        4.6668001507       11.8665835669
 O         0.1062828427        8.2524320675       10.2066522166
 C        -2.2824230278        6.8281192069       10.0566465560
 C        -2.0542508475        6.4767279039       12.5593715896
 H        -0.3654085699       -6.3219325600       -3.5358232786
 H         0.6381394958       -6.6546881450       -4.8013075906
 H         1.1502666304       -5.5944997924       -3.4604442681
 H        -0.8194291697       -5.0412005843       -9.1070646254
 H        -0.4545303519       -6.2372149877       -8.0030200241
 H        -0.4411670505       -2.1705200236       -5.4911047924
 H         0.6220912700       -2.0038197127       -6.8677763687
 H         1.2797004801       -2.1655346065       -5.2117428566
 H         2.4096174174       -4.2245287391       -6.0253996182
 H         1.5108364800       -5.7783095280       -6.4102478352
 H         1.7133823958       -4.5494950640       -7.5252039084
 H        -3.3344644139       -5.4269390544       -8.3424507999
 H        -2.5444546555       -6.6219568180       -9.1518681321
 H        -4.4747121460       -8.0086479089       -3.9658080910
 H        -3.2196971011       -6.6692221500       -4.3095008891
 H        -4.4275551173       -8.0763848435       -8.7893536526
 H        -5.2110540782       -6.5957086930       -8.2012684192
 H        -5.6960134196       -8.2186086452       -7.7147225979
 H        -4.6679450679       -9.4744679313       -5.8289849925
 H        -3.1962013971       -9.4926385156       -6.9183243842
 H        -3.1350456482       -8.9917695557       -5.2701619980
 H        -5.2038153222       -6.3542180007       -2.2242016200
 H        -6.2583712786       -6.0879993922       -3.6297580835
 H        -6.6970636797       -1.9836212423       -4.4725360363
 H        -7.2154606335       -1.3611993193       -2.8637595205
 H        -7.1129524602       -3.9824821949       -2.7121000690
 H        -7.0918788655       -3.3009379688       -1.0409380946
 H        -6.3925267082       -4.9714905894       -1.4181076303
 H        -4.2267347501       -3.0760647733       -0.2453502962
 H        -4.6051621579       -4.7267678598       -0.5685494479
 H        -3.2259145121       -3.8731498643       -1.2950868502
 H        -6.6827652634        0.4622032951       -4.7022189367
 H        -6.0897740911        0.5899797118       -3.1261979090
 H        -1.4580937673        2.7074832718       -3.9903428232
 H        -1.2808430098        2.0088495143       -2.4638654363
 H        -4.5891552294        2.6338861718       -5.5135317498
 H        -3.4611141199        1.5904607355       -6.4205562707
 H        -2.8617739001        2.9452835350       -5.4608818304
 H        -3.2315181584        2.9425370073       -2.7864819634
 H        -4.9306272279        2.2773557910       -2.9232335562
 H        -3.6485860695        1.2830528490       -2.1668762563
 H         0.7191337170        0.8984907952       -4.2800825835
 H         0.7493220652        1.1265106099       -2.5381018189
 H         4.6380399758        3.6463497434       -0.9039063216
 H         3.1101813951        4.8700000428       -0.9652797065
 H         3.3001909901        1.7185611481       -4.9379765584
 H         3.1292212916        1.0429856404       -3.3715395092
 H         4.4967061468        2.1035321813       -3.6960798645
 H         3.4535253848        4.5209842381       -4.5712529061
 H         2.4827817870        5.0649694027       -3.2946474197
 H         4.0681175098        4.4980839911       -2.8986560302
 H         3.1864017010        4.4901089797        1.2626780605
 H         2.7352075445        2.7294352896        1.0158099874
 H         1.9520472988        2.2849810615        4.7939347268
 H         3.0740462346        1.0768734396        4.7914388534
 H         5.2943816904        0.5486683457        1.7369421660
 H         3.5843970458        0.8879156802        2.0157952089
 H         4.4645431269        0.4563570988        3.3563426240
 H         6.2776273872        3.6988827015        3.6532677469
 H         6.0117969441        2.2090826010        4.7482671315
 H         6.9971696352        2.2223119537        3.2422199554
 H         3.3474391802        3.7453511326        6.2637151128
 H         4.7701424300        2.5664414862        6.0811559242
 H         0.3085898349        3.3897683078        8.7095882912
 H         0.8777110626        3.4403696245       10.4266407355
 H         3.7895238148        1.1842093228       10.2093769804
 H         2.1750932603        1.0578527949        9.4285929523
 H         2.3846696724        2.1798711495       10.8189487354
 H         4.6624317190        4.3673414981        8.8884839674
 H         5.0188829269        3.1832306067       10.0353269923
 H         5.4828873970        2.7960388276        8.2680287417
 H         0.9577287646        6.2187081025        9.5426448234
 H        -0.4275436862        5.6566916632        8.7702078712
 H        -0.5944658707        8.7432346193       13.3383779376
 H         0.9349082682        7.9505903219       13.0972996915
 H         0.3712800729        9.5023880621       12.2186127444
 H        -1.7288622730        7.1788198513        9.1978482321
 H        -3.0468569247        7.4714249998       10.2406333732
 H        -2.7636899555        5.8907578137        9.7136922200
 H        -2.7310903828        5.6917711457       12.3560954676
 H        -1.2418463735        6.3643585737       13.3074278081
 H        -2.5453098649        7.3597491743       12.9426358721
 Na       -2.8042910643       -2.4378695231       -4.9031715540
