155

 C         0.7465987952       -5.3496728663       -3.9154268807
 C        -0.0139658916       -4.2369330630       -4.6717781184
 C         0.2017892640       -4.0554606553       -6.1790197745
 C        -1.2240840808       -4.0983400163       -6.9238085061
 C        -1.3297018011       -4.8964275185       -8.1617264070
 C         0.6160554238       -2.5088197363       -6.2158954446
 C         1.2448707052       -4.9832132048       -6.8337652856
 O        -0.9734176014       -3.6631535196       -4.0997552786
 O        -2.1179836835       -3.3574035787       -6.5999353529
 C        -2.5932910478       -5.8902489661       -8.0871227924
 C        -2.3563335802       -6.9388227389       -6.9638318374
 C        -3.4069735636       -8.1021757232       -6.6812629888
 C        -4.4347487729       -7.2179137852       -5.7421977839
 C        -3.9874396511       -7.1726825375       -4.2862222349
 O        -1.4114624607       -6.7791352388       -6.1697227997
 O        -5.4291910175       -6.6830208574       -6.1941012623
 C        -4.0153375913       -8.6840521528       -8.0164262773
 C        -2.7229761780       -9.2728279861       -5.9570512239
 C        -4.8402857030       -6.1340972750       -3.4277582496
 C        -4.5088453500       -4.6864004099       -3.6173057285
 C        -5.0040445249       -3.7076552867       -2.5465392118
 C        -4.9976776989       -2.1833805311       -2.9131997407
 C        -6.0767081339       -1.4668957358       -3.8843705195
 C        -6.5757761530       -4.0601725951       -2.3592635288
 C        -4.2829793750       -3.6673216546       -1.1911162117
 O        -3.7644368835       -4.3201196115       -4.5066907985
 O        -4.0601353810       -1.5013452874       -2.6019540252
 C        -5.9076812975        0.0093462758       -4.0296456200
 C        -4.4826664892        0.3234062787       -4.5115627244
 C        -3.5426926327        1.4811324609       -4.0340357393
 C        -2.1354016431        0.9536722776       -3.4598197476
 C        -1.3273216837        1.8478753949       -2.5144442883
 O        -4.1030432429       -0.4621730360       -5.3930445455
 O        -1.6065459845       -0.0176127562       -3.9550715171
 C        -3.1541857429        2.3899712909       -5.2274294245
 C        -4.3814686899        2.3517393805       -3.0514686533
 C         0.2068096783        1.5543574993       -2.4427275737
 C         0.9576703778        2.8217374609       -2.8115074321
 C         2.5224595278        2.7644617383       -2.6746249112
 C         2.7404427258        2.9682390601       -1.1642998766
 C         3.3421508269        4.3452977618       -0.6317512331
 C         3.2043062166        1.4440874642       -3.0551039352
 C         3.1059761985        3.8899566545       -3.5119650304
 O         0.4053040205        3.8479014072       -3.1789169195
 O         2.4127805302        1.9627352923       -0.4903038967
 C         3.7575417453        4.1837721916        0.8627915270
 C         4.9331118641        3.2746263224        1.1303041786
 C         4.9002423277        2.2571840541        2.3097327514
 C         4.3932564036        2.9601892644        3.5405033801
 C         3.8991085292        2.1607549976        4.7502155189
 O         5.8881865112        3.3138851285        0.3693080879
 O         4.5654163874        4.1815923998        3.5786369106
 C         4.0559022265        1.0937568521        1.8281440851
 C         6.4513354334        1.7008861514        2.4679255909
 C         3.7694976020        2.9902904291        6.0071204400
 C         2.6226511524        2.6485550998        6.9305421670
 C         2.7893570301        2.7432815936        8.5384199458
 C         2.0476450441        4.1122332764        8.9476200416
 C         0.4830778017        4.0490927762        9.0572510942
 C         1.9676813644        1.3713675887        8.9654779009
 C         4.2603005726        2.8161883440        8.9405034029
 O         1.5654259917        2.2603188517        6.5382495399
 O         2.7933796784        5.0227532708        9.2317830113
 C        -0.0211056844        5.4607652897        9.6167978699
 C        -1.1354713290        5.3570842018       10.6061923703
 C        -1.8052776371        6.7063116020       10.9967470790
 C        -0.6557088513        7.5045047593       11.6210941285
 C        -0.1402298736        7.3245047033       13.0964578049
 O        -1.3637073309        4.3769687684       11.2666669162
 O        -0.0710620172        8.3896603783       10.9627742874
 C        -2.4575174722        7.4174240100        9.7930332309
 C        -2.9429549801        6.4029235521       12.0659325130
 H         0.4920115899       -5.3506048203       -2.8959710318
 H         0.5640428843       -6.2282556551       -4.4326343915
 H         1.7838956778       -5.2268473497       -4.1417406371
 H        -1.3427991501       -4.3266144613       -9.1152981821
 H        -0.4449965294       -5.5841240875       -8.0835765495
 H        -0.2529950433       -1.8800757828       -5.9962425693
 H         1.1192988135       -2.1401767383       -7.0811844697
 H         1.3571584216       -2.3878306061       -5.4056733359
 H         2.2269869304       -4.9142861284       -6.3019806868
 H         1.0223499039       -6.0525962776       -6.7392714128
 H         1.3792527279       -4.7189558117       -7.8211420300
 H        -3.3429994492       -5.1369999528       -7.7507207572
 H        -2.8225197631       -6.2994846957       -9.0343412127
 H        -4.0985964570       -8.2319644327       -3.9047333472
 H        -2.9101778407       -6.9446745481       -4.1568907530
 H        -3.2967918507       -8.9481027924       -8.7445259066
 H        -4.7114926687       -7.9423336289       -8.4793496718
 H        -4.5295069326       -9.5865018279       -7.7077461356
 H        -3.5175131580       -9.9798152956       -5.7594654554
 H        -2.0612467852       -9.7256212651       -6.6864936235
 H        -2.1320957833       -8.9407396147       -5.1300389062
 H        -4.9798817388       -6.4233938902       -2.3979142410
 H        -5.9046959651       -6.2005674928       -3.8125551421
 H        -6.0939540914       -1.8262976509       -4.9241709767
 H        -7.0848203075       -1.4665586595       -3.4846052185
 H        -6.9600404660       -4.4200293124       -3.2904405564
 H        -7.0164868197       -3.0945665360       -2.0692670226
 H        -6.7208822034       -4.8540032633       -1.5308589462
 H        -5.0340879951       -3.2581498086       -0.4474769209
 H        -3.9800486526       -4.6655577369       -0.8709895796
 H        -3.3222450759       -3.1484254240       -1.1745061025
 H        -6.5860449439        0.3505210811       -4.7739864402
 H        -6.1561663971        0.4455350947       -3.0443904681
 H        -1.4555142773        2.8219077741       -2.9283766756
 H        -1.8316932771        1.8854347234       -1.5757286795
 H        -4.0620929639        2.7603908790       -5.5958752892
 H        -2.5502478701        1.9198151801       -6.0076275268
 H        -2.6243686110        3.2124814790       -4.8178500760
 H        -4.0371126963        3.4136668057       -2.8787291496
 H        -5.3604314559        2.5249905391       -3.2716332036
 H        -4.2250283394        1.8523435386       -2.0789383166
 H         0.3817150968        0.6705942600       -3.1193185380
 H         0.4028695499        1.1825369739       -1.4570648036
 H         4.1880997510        4.6300904852       -1.2956372645
 H         2.5845634664        5.2172365455       -0.7851595299
 H         2.9551615526        1.1740436856       -4.1013771388
 H         2.9040882494        0.5666803149       -2.4773216498
 H         4.2874745008        1.5475554233       -2.9018993961
 H         2.3780353892        3.9688743784       -4.3742211675
 H         3.1418272815        4.7706531987       -3.0028900871
 H         4.1120756442        3.6394049284       -3.9090883615
 H         3.9033442304        5.1218029952        1.4595938621
 H         2.9188356478        3.8325995751        1.4815295123
 H         2.9327244492        1.6843414675        4.5821696309
 H         4.7009144993        1.4534922515        4.8704749961
 H         4.3092165591        0.8216215087        0.8335339478
 H         2.9932398455        1.3580762712        1.7235010842
 H         4.2732526214        0.2903679504        2.4585998677
 H         7.0081456968        2.4402838238        3.0741560189
 H         6.3800182328        0.8789805786        3.1850297880
 H         6.8154049411        1.5832812973        1.5085064986
 H         3.5400736124        4.0466632389        5.7352959573
 H         4.7715003405        3.0488319148        6.5502494504
 H         0.0669284794        4.1369709509        8.0058883222
 H         0.1151916762        3.2019738789        9.6243110848
 H         2.4387812796        0.4605001673        8.5651597848
 H         0.9948618413        1.4794452930        8.5879904865
 H         1.9062716617        1.0866405316       10.0387800486
 H         4.7905581802        3.6708825824        8.4106813473
 H         4.2089512054        2.9134337963       10.0629954002
 H         4.8214351551        1.8732666733        8.6867574083
 H         0.8216002568        6.0116624404       10.0791696451
 H        -0.4334577608        6.0849212962        8.8528549873
 H        -0.8537997166        7.5138682407       13.9175027407
 H         0.3796663597        6.4250383856       13.3470180149
 H         0.6584598218        8.0377575527       13.2276960713
 H        -1.7991713097        7.8118556788        9.0463256054
 H        -3.0631659362        8.1875854135       10.0620304217
 H        -3.1715653544        6.7687811243        9.2605978676
 H        -3.6583411867        5.7020055650       11.7343298654
 H        -2.6396208441        5.9223550699       13.0101076326
 H        -3.3896671537        7.4149405442       12.2263909839
 Na       -2.5139444347       -1.9895266048       -4.6831674798
