155

 C         1.1493145579       -5.1832163442       -4.2229560681
 C         0.3177382911       -3.9735646174       -4.8399505614
 C         0.4521419854       -3.6835540219       -6.3152443159
 C        -1.0295196728       -3.8898007183       -6.8852774126
 C        -1.1843511074       -4.6889852595       -8.2087680016
 C         0.6008364563       -2.0759355497       -6.3524634713
 C         1.4273164141       -4.5462939389       -7.0890077967
 O        -0.4596506403       -3.3680443783       -4.0970464338
 O        -2.0284051734       -3.3173519327       -6.5159244920
 C        -2.3741551497       -5.6229907775       -8.1200059881
 C        -2.1169471662       -6.6271301516       -7.0034385022
 C        -2.9629869847       -7.9767391181       -6.6476783401
 C        -4.1580992592       -7.5564260919       -5.7573173069
 C        -3.8449657056       -7.1594000738       -4.2682018105
 O        -1.2936878542       -6.3301905602       -6.0896566653
 O        -5.3030907407       -7.6993689647       -6.1082268421
 C        -3.4242767793       -8.6977627431       -7.9378622184
 C        -2.1197495202       -9.0249640256       -5.8391440110
 C        -4.8744852332       -6.2197597777       -3.6263079131
 C        -4.5990049759       -4.7975684080       -3.5483217792
 C        -5.3484713909       -3.8910889838       -2.4440328239
 C        -4.9088131128       -2.4621874140       -2.8000359608
 C        -5.7082073214       -1.6158214938       -3.8538106400
 C        -6.8867217062       -4.3228833458       -2.5289742096
 C        -4.7909845237       -4.3026055788       -1.0655257816
 O        -3.7398097489       -4.2353820776       -4.2338401410
 O        -4.0661963353       -1.8781808508       -2.1998054710
 C        -5.5247756972       -0.1116730223       -3.8887134881
 C        -4.1952443498        0.2896464996       -4.6212062973
 C        -3.4225949757        1.6255445934       -4.2074649497
 C        -2.1033570600        1.1588930489       -3.2484292121
 C        -1.6984706966        2.1322971658       -2.1648694359
 O        -3.7429589898       -0.4775487233       -5.4922240811
 O        -1.5851397997        0.1164174078       -3.4912203820
 C        -2.8271162784        2.2930636405       -5.4333911566
 C        -4.3417501607        2.7261971727       -3.5502767279
 C        -0.1961541138        1.9567138038       -1.7935085975
 C         0.7124588720        2.8392792659       -2.6945735938
 C         2.3113455678        2.6895830546       -2.5440280874
 C         2.5817423969        2.9848831058       -0.9597686498
 C         3.3749404398        4.2449328986       -0.4604159874
 C         2.7415879001        1.2087647101       -2.8632070544
 C         3.0619718335        3.6068114633       -3.4022664430
 O         0.1824422002        3.5710569299       -3.4724192576
 O         2.1045119801        2.1128336783       -0.2720217266
 C         3.7994372160        4.0588533237        0.9358323727
 C         4.8311346083        2.9201230723        1.0082706737
 C         5.0686288021        2.3070092402        2.5097403765
 C         4.8910422492        3.2541462542        3.6613397788
 C         3.9333638998        2.7440371514        4.8651581354
 O         5.2848761574        2.3285090607        0.0679812987
 O         5.6994929509        4.1130816789        3.8098078111
 C         3.9675818071        1.1967346345        2.5695562853
 C         6.4953682375        1.7847959651        2.4934112611
 C         3.8068469444        3.6405316786        6.1385849747
 C         2.4287757386        3.3115605346        6.7593619643
 C         2.4842379046        2.6386963056        8.1852816831
 C         1.7667950060        3.7501562564        9.1264163533
 C         0.3013493626        3.9665483076        8.8909794739
 C         1.6528657722        1.3190065812        7.9429169886
 C         3.9271494762        2.3852407658        8.7234488886
 O         1.3611870024        3.6065544000        6.1885079555
 O         2.5330141047        4.4058227137        9.8839771927
 C        -0.0522487809        5.3646752514        9.4108799320
 C        -1.4037444911        5.3716577189       10.2008770009
 C        -1.9924046738        6.7734685229       10.7428509290
 C        -0.9886075422        7.2650063735       11.8840207880
 C        -0.6387564201        6.1933606064       12.8557970298
 O        -1.8766843583        4.2670265102       10.4347104519
 O        -0.4641433518        8.3252060448       11.8320920327
 C        -2.1304605836        7.7974263765        9.5010356043
 C        -3.4513476813        6.5010086950       11.2950314828
 H         0.8223748791       -5.4704193737       -3.2209525125
 H         1.1103577021       -6.0757105678       -4.8834971581
 H         2.1965551604       -4.7128944733       -4.2194241781
 H        -1.4546291985       -4.1496575446       -9.0435195985
 H        -0.2235727577       -5.1605870526       -8.4800433394
 H        -0.2388551001       -1.6011087673       -5.8607575676
 H         0.6344770151       -1.7303512617       -7.3602224040
 H         1.5255703528       -1.8000250010       -5.7699091091
 H         2.4844073218       -4.4551366216       -6.6578200158
 H         1.0852650956       -5.5464432827       -6.9299921255
 H         1.5592510940       -4.3205084207       -8.1402503810
 H        -3.1836860261       -4.9225124867       -7.7685627150
 H        -2.5589584422       -6.0882446802       -9.0797927268
 H        -3.7855591565       -8.1398590491       -3.7908150766
 H        -2.8705488929       -6.7699676365       -4.0460962272
 H        -2.5157672980       -8.7511485814       -8.6303622688
 H        -4.2245984017       -8.2315443518       -8.4339530527
 H        -3.8290694170       -9.7199192247       -7.7511598863
 H        -2.6190277017      -10.0069063644       -5.6571619641
 H        -1.2220784635       -9.1746043841       -6.4238352752
 H        -1.9356606438       -8.5694374247       -4.8564513810
 H        -4.9054931496       -6.5214777745       -2.6108433501
 H        -5.8767315003       -6.4440714469       -4.0404247897
 H        -5.5672934313       -1.8589918382       -4.9335541690
 H        -6.7818728303       -1.7952329962       -3.7971603675
 H        -7.1452149849       -4.7019802519       -3.5162656770
 H        -7.6560860028       -3.5940210134       -2.2657824466
 H        -6.9942430384       -5.1398523735       -1.8441936139
 H        -5.5356510896       -4.0417795729       -0.3401450231
 H        -4.9011030700       -5.3738779143       -1.0761994001
 H        -3.8514094516       -3.8892079125       -0.6922762373
 H        -6.3777682846        0.2861487387       -4.4150119228
 H        -5.4726800816        0.3809764220       -2.8661317678
 H        -1.9764758985        3.1620511098       -2.5927550818
 H        -2.3294365949        1.8409770699       -1.2823285709
 H        -3.6504223199        2.3950132272       -6.2244822184
 H        -2.1326889229        1.5345078180       -5.8798497100
 H        -2.4105278513        3.2600540289       -5.1342674862
 H        -3.7389547570        3.4342208442       -2.9043272810
 H        -4.9290993313        3.3264443440       -4.3099799140
 H        -5.1435147546        2.2268906132       -2.9825377258
 H        -0.0574519619        0.8459121785       -1.9369152166
 H        -0.0462613181        2.1478022699       -0.7205388431
 H         4.1802031031        4.4304882655       -1.1542421040
 H         2.7288561893        5.1074772867       -0.6089240654
 H         2.6311508111        0.9235931145       -3.9916498842
 H         2.1225171043        0.5336966437       -2.2958806679
 H         3.7547402273        0.9075989167       -2.6391153615
 H         2.6030797617        3.7003541131       -4.3580035191
 H         3.0869559965        4.6908954977       -2.9514431088
 H         4.0078037486        3.1880504279       -3.5261301937
 H         4.4595585139        4.8651533334        1.3583894193
 H         2.9461031014        3.8646446132        1.5856444404
 H         2.8947179783        2.4214659789        4.6109876559
 H         4.5899561186        1.9467265791        5.1984191921
 H         4.1113635522        0.5648020280        1.6858737567
 H         2.9977356124        1.6784025484        2.7769530715
 H         4.0425811766        0.5744567079        3.4714762399
 H         6.9923737081        2.7120087281        2.6800411655
 H         6.6139851594        0.9617764508        3.2857249379
 H         6.7864594325        1.3162161934        1.5491441989
 H         3.8614747258        4.7291673142        5.9131946934
 H         4.6282679347        3.3694750258        6.8302070262
 H         0.1904524061        3.6479102992        7.8262442758
 H        -0.3036625763        3.1453035440        9.3077105193
 H         2.1628558581        0.6317378880        7.2384708979
 H         0.6858999718        1.5533135180        7.4672327114
 H         1.3044771311        0.8417021660        8.8137026226
 H         4.4329114432        3.2684766062        8.7236406204
 H         3.7095111990        2.2795365373        9.7591647767
 H         4.4475977208        1.5219211063        8.3211503410
 H         0.6382777856        5.8271417558       10.1449713629
 H        -0.0043030917        5.9774006045        8.5268492375
 H        -1.1141891485        6.2903597658       13.7946341142
 H        -0.8506546478        5.1257870319       12.4763687847
 H         0.3888203829        6.2425051784       13.1478697394
 H        -1.1820758085        8.0358931178        8.9781015477
 H        -2.4660097112        8.7988280956        9.7572286529
 H        -2.7006274435        7.3501376744        8.6446770352
 H        -4.0768751832        6.1329256444       10.5447345890
 H        -3.4183213866        5.9417211283       12.2484772564
 H        -3.9490200737        7.4047036277       11.6054706682
 Na       -2.3828267645       -1.9981405621       -4.4356130575
