155

 C         1.8572796089       -4.3835849188       -4.3378891683
 C         0.5362751391       -3.6897863838       -4.8147288508
 C         0.3820559997       -3.2667836615       -6.3233261206
 C        -1.0907450576       -3.6563561470       -6.9519555802
 C        -1.2428631735       -4.3954300015       -8.3132193704
 C         0.6883150061       -1.6902167191       -6.3446296988
 C         1.5298725798       -3.8568838557       -7.1745513047
 O        -0.3004314893       -3.3256208064       -3.9992826983
 O        -2.0986915685       -3.3427485009       -6.3817709517
 C        -2.0083824106       -5.7491007651       -8.1945627602
 C        -1.6901516623       -6.4997459034       -6.9265970670
 C        -2.5964453197       -7.8292729473       -6.5774549085
 C        -3.8812224662       -7.4612079279       -5.7267191880
 C        -3.6372038962       -6.9951738651       -4.2714434213
 O        -0.7874402639       -6.1708510686       -6.2275037842
 O        -4.9946138265       -7.3320862967       -6.2512374402
 C        -3.1518095327       -8.3393458418       -8.0178676460
 C        -1.7572972970       -8.7899180611       -5.7967135339
 C        -4.8650375048       -6.3119535716       -3.4671634823
 C        -4.5284966458       -4.8421708650       -3.3396656462
 C        -5.4382584771       -3.9483623519       -2.4550545723
 C        -5.0431427733       -2.4426204627       -2.7161438816
 C        -6.0188483147       -1.6015537267       -3.6451990339
 C        -6.8861366388       -4.3472920662       -2.7759676308
 C        -5.2325231244       -4.2938830413       -0.9868369017
 O        -3.5758401910       -4.3357625923       -3.8958178429
 O        -4.2809036747       -1.9698312982       -1.9034116046
 C        -5.4432314601       -0.1931501360       -3.8737157225
 C        -4.1527412189       -0.0227534475       -4.6815887783
 C        -3.2743620471        1.2815023918       -4.3780310130
 C        -2.2623949627        0.8983613429       -3.2369718258
 C        -1.9437701168        1.9759737553       -2.1772735966
 O        -3.8154539708       -0.8278092119       -5.4876595150
 O        -1.7886641652       -0.2408343027       -3.2140573856
 C        -2.5489767448        1.6056349258       -5.6505934945
 C        -4.0569138673        2.6014943131       -4.0161323719
 C        -0.4673800887        1.8581161822       -1.6955567385
 C         0.6249694058        2.6732222094       -2.6725120093
 C         2.1401990165        2.6852117880       -2.2172867341
 C         2.3102957572        3.0400003639       -0.7314185974
 C         3.4490742674        3.9490150518       -0.3991825685
 C         2.5931206802        1.2325209393       -2.4128104026
 C         2.8475626853        3.6624533801       -3.2462199694
 O         0.2504725164        3.4420351121       -3.5009381833
 O         1.6346957580        2.4894751833        0.1602685029
 C         4.0474628442        3.7116690665        1.0164257040
 C         5.0799739432        2.5791140125        1.0487896120
 C         5.3391172898        1.9701562669        2.4751775861
 C         4.9300214418        3.0547694559        3.6119933620
 C         3.7883701288        2.6827250934        4.5872152372
 O         5.5638812711        1.9933730133        0.1420931755
 O         5.3573475284        4.1584188076        3.5665787547
 C         4.6389885644        0.5444686735        2.5982378207
 C         6.8476496890        1.6262388279        2.6141486776
 C         3.7737694280        3.7338114406        5.6736617753
 C         2.4426407811        3.8048557370        6.4653594641
 C         2.3428641511        2.8448435075        7.7527934824
 C         1.6117499565        3.5678450537        8.9194015006
 C         0.0961650395        3.9161332781        9.0864573526
 C         1.6256753764        1.5655492539        7.2646551372
 C         3.7621980960        2.4400727600        8.3614486680
 O         1.5157782712        4.4704527935        6.1392718804
 O         2.3589304539        3.8037991256        9.9117378862
 C        -0.1306332705        5.3577975544        9.7918503985
 C        -1.6672328240        5.5541324226        9.8969742195
 C        -2.2473356605        6.8780284740       10.7706413045
 C        -1.4590411794        6.9806038944       12.0663704737
 C        -1.6093972412        5.9197187941       13.1373482769
 O        -2.4334012596        4.6646438286        9.6204525119
 O        -0.7043883343        7.9026560968       12.2205327881
 C        -2.0060117166        8.0571397158        9.7104177807
 C        -3.7098401683        6.6267077081       11.1133553639
 H         1.7877105318       -4.7673268947       -3.4057642102
 H         1.8881339223       -5.2326877743       -4.9515645936
 H         2.6769626373       -3.6412849198       -4.2307958955
 H        -1.8252641460       -3.7923426019       -9.0848700791
 H        -0.2023395016       -4.4637906408       -8.6982455654
 H        -0.0408972427       -1.1613207234       -5.7084581143
 H         0.8134248125       -1.3172403269       -7.3720005388
 H         1.6501958082       -1.5291977876       -5.8999049402
 H         2.4492069947       -3.4328945926       -6.7614371815
 H         1.5950451013       -4.9561053004       -7.1860882152
 H         1.3941144310       -3.5072540679       -8.1667227771
 H        -3.0428985141       -5.4638880228       -8.1088875948
 H        -1.8391318569       -6.4647465405       -9.0221457811
 H        -3.2804952043       -7.8724187540       -3.6933667462
 H        -2.7389144490       -6.3196940491       -4.2058000511
 H        -2.3522365735       -8.6254272069       -8.7497663527
 H        -3.7343816284       -7.6074060712       -8.6203288599
 H        -3.7357571051       -9.3118624460       -7.8752753607
 H        -2.3510022945       -9.6811480484       -5.5742358926
 H        -0.8346203967       -9.1067897994       -6.3622306510
 H        -1.3105464968       -8.2945873984       -4.9167226777
 H        -4.9528867517       -6.7467121771       -2.4456489361
 H        -5.6947857852       -6.5394377778       -4.0803438836
 H        -6.1825422223       -2.1276613112       -4.5937273841
 H        -7.0808002884       -1.5082722320       -3.2971091985
 H        -7.3253707172       -4.1052803643       -3.6980391721
 H        -7.5056109031       -3.9537021764       -1.9236284845
 H        -7.0882185841       -5.4780683435       -2.6257794176
 H        -6.0057373209       -3.6851751226       -0.4758586067
 H        -5.5248687749       -5.3197149274       -0.8412998558
 H        -4.2681985378       -4.0459320961       -0.5747847457
 H        -6.1742487374        0.4682057675       -4.4230711265
 H        -5.2607561115        0.2832025045       -2.9413751207
 H        -2.1368147919        2.9794196851       -2.5470367571
 H        -2.5535977763        1.7227987982       -1.2479806574
 H        -3.3265516642        2.0462540378       -6.2458956177
 H        -1.9562883995        0.7004250045       -5.9861775991
 H        -1.7556484425        2.3428820745       -5.4480197600
 H        -3.3465751615        3.4624296648       -3.8193400490
 H        -4.4803476399        2.9890524282       -4.8779234466
 H        -4.8766083814        2.4544703114       -3.2526755388
 H        -0.1320287602        0.8251180837       -1.5005794743
 H        -0.1714664435        2.3922339248       -0.7895733791
 H         4.2561227685        3.8114451171       -1.1759648393
 H         3.1174407096        5.0296898349       -0.3550532886
 H         2.4752899418        0.9199749107       -3.4299930301
 H         2.0290657420        0.4858416940       -1.8025569531
 H         3.5816038238        1.0348380916       -1.9617710170
 H         2.2090143042        3.6076704803       -4.1364784416
 H         2.8035139904        4.6954763846       -2.8437195767
 H         3.8520676303        3.4582608565       -3.5357376925
 H         4.6250106314        4.6211376009        1.2151684841
 H         3.2237864286        3.3214279363        1.6708634318
 H         2.8126449251        2.6643607373        4.1509715627
 H         3.8134765194        1.6261413798        4.9501286475
 H         5.1399376186       -0.1175063563        1.8715034491
 H         3.5257607336        0.3792109411        2.4212639965
 H         4.9688183826        0.1485300226        3.5663527043
 H         7.3981952140        2.6273571423        2.6666696461
 H         7.0839336220        1.0025505395        3.5251985921
 H         7.0712506195        1.0801100291        1.7231179564
 H         3.7558315909        4.6896594795        5.1044140916
 H         4.6283221809        3.6077894875        6.4152117006
 H        -0.3257460503        3.7715186905        8.0947694902
 H        -0.2841900404        2.9906401795        9.5551805578
 H         2.0098164925        1.1119781023        6.3687791616
 H         0.6121015514        1.7415670302        7.0280754472
 H         1.6354419059        0.7134500092        8.0106608576
 H         4.3936661514        3.2699070847        8.3822203944
 H         3.5362760663        2.0861636561        9.3082649817
 H         4.2091576750        1.6115325769        7.9030303848
 H         0.2860707221        5.4575402429       10.7835263270
 H         0.4163141974        6.1443028777        9.2530527922
 H        -2.4786988135        5.2848876891       13.2196562613
 H        -0.9528822838        5.0951705091       12.8164193229
 H        -1.2280813018        6.2424421942       14.0164328696
 H        -1.0158496601        8.0282656761        9.1956413524
 H        -2.1274973677        9.0168722184       10.1028850138
 H        -2.8058356991        7.9728712256        8.9008367553
 H        -4.2737226498        6.6371543674       10.1888496152
 H        -3.9652516325        5.6528633290       11.4866351506
 H        -4.1196995297        7.4430869825       11.7383054209
 Na       -2.2963663612       -2.2274010976       -4.1765918440
