155

 C         1.7599906015       -3.9857534212       -3.8198216465
 C         0.7652578343       -3.0189318277       -4.4828897020
 C         0.7999675940       -2.3487856300       -5.8398944848
 C        -0.3458419895       -2.9902124917       -6.7059761728
 C        -0.2657500243       -3.7045717633       -8.0348033538
 C         0.3498254843       -0.8075453577       -5.6637305724
 C         2.1093025369       -2.4673179301       -6.4552793003
 O        -0.1126202200       -2.5734759976       -3.7618117940
 O        -1.4205381334       -2.7241728909       -6.2713058129
 C        -0.9083255133       -5.1117060918       -8.0354135595
 C        -0.5477084099       -6.0191874137       -6.8430378086
 C        -1.3140761150       -7.3421340582       -6.8003136556
 C        -2.6648714928       -6.9845441861       -5.9138376877
 C        -2.6365820810       -6.9380650799       -4.3508211377
 O         0.1668003902       -5.6469620437       -5.9632323939
 O        -3.6750197531       -6.8226747410       -6.5264412947
 C        -1.7391278014       -7.9665759690       -8.2783535586
 C        -0.5338415621       -8.4468436908       -5.9992487366
 C        -3.9928022907       -6.4599759225       -3.8529288362
 C        -3.9493318879       -4.8751384912       -3.5681127773
 C        -4.8993124490       -4.2498312456       -2.4552846245
 C        -4.8196231378       -2.6430782907       -2.5986358355
 C        -5.7863262030       -1.9305314687       -3.6378267175
 C        -6.2909241397       -4.8281138783       -2.6935906759
 C        -4.0921430348       -4.6003796210       -1.1321001425
 O        -3.0693323767       -4.3414935915       -4.2408802621
 O        -3.9549693022       -1.9841367904       -2.1006276542
 C        -5.5895202502       -0.3916585084       -3.5550009334
 C        -4.3463071544        0.0689680575       -4.1789190618
 C        -3.6182892535        1.2870145419       -3.6663160187
 C        -2.5157768755        0.8031676224       -2.6589907854
 C        -2.0593388964        1.7236148082       -1.5330162465
 O        -3.7797130802       -0.6402292158       -5.0481999502
 O        -1.9778471237       -0.2635871580       -2.7371576952
 C        -2.9918813179        1.9945470503       -4.9529605526
 C        -4.6294912529        2.1433242457       -2.9011008944
 C        -0.5846316495        1.4907180556       -1.2675348015
 C         0.3919652903        1.8231634530       -2.4363223378
 C         1.9488811549        1.6065067606       -2.2534741089
 C         2.6251447933        2.7902539528       -1.2975391674
 C         4.1356677610        2.5999641365       -1.0571667556
 C         2.1331803737        0.2415931946       -1.5052373307
 C         2.6527483937        1.5300450094       -3.6993504470
 O         0.0288258517        2.2715262133       -3.4564782718
 O         2.0006472998        3.6260290474       -0.7142712044
 C         4.5872260869        3.1079451778        0.3156842193
 C         4.2565254239        2.0395550380        1.4486702920
 C         5.2976446207        1.9584390918        2.7510682885
 C         5.0134789790        3.0901573575        3.7843084631
 C         3.6277342014        3.1053117457        4.4098046611
 O         3.4462791023        1.1645187924        1.2127230740
 O         5.7520602489        4.0123311068        3.9867859353
 C         5.0231273449        0.5983166643        3.4348783698
 C         6.7819657673        2.0506939473        2.2076888466
 C         3.3767034493        4.1323460198        5.5284556935
 C         1.8977056904        3.9672763731        5.8996859496
 C         1.5134421953        3.0672873979        7.1213780822
 C         0.9669895812        4.0170690855        8.2412900582
 C        -0.4839159209        4.4978951533        8.2097710931
 C         0.3531165939        2.1788955778        6.5089026043
 C         2.5613831007        2.2342729419        7.7261926984
 O         1.0866372882        4.5872352771        5.2875375269
 O         1.6861548602        4.1370856426        9.2089460630
 C        -0.9440521969        5.1663030610        9.5045459017
 C        -2.2960734792        6.0249722236        9.3388221237
 C        -2.6838684707        6.6761765581       10.6643417197
 C        -3.0933331939        5.4975259952       11.6852013739
 C        -4.3845156373        5.6002361435       12.4381998036
 O        -3.0580925508        5.8773841743        8.3799698839
 O        -2.3227560388        4.6205556441       11.9662362742
 C        -1.5543818250        7.3038856857       11.5218028062
 C        -3.7704117435        7.6960799886       10.4143685605
 H         1.2177868774       -4.9043230907       -3.7229059852
 H         2.5228328751       -4.2457217128       -4.4468436485
 H         2.0236123626       -3.5282180035       -2.8117265941
 H        -0.7254833509       -2.9939324819       -8.7983667879
 H         0.8022713372       -3.6866637032       -8.2956852681
 H        -0.7237356834       -0.7113880539       -5.8010356404
 H         0.7692192188       -0.2320861183       -6.4634490497
 H         0.6323522423       -0.2615159235       -4.7502228533
 H         2.9221009294       -2.1275539035       -5.8675162745
 H         2.3087499433       -3.5414711159       -6.6931946076
 H         2.1651731835       -1.9423365898       -7.4653217619
 H        -2.0381011775       -5.0098423997       -8.1974363187
 H        -0.5565425078       -5.6360463671       -8.9046937604
 H        -2.5134135022       -7.9502599431       -3.8884651017
 H        -1.8095174215       -6.3563219515       -3.9217406079
 H        -0.9164310295       -8.1063593999       -8.9092092208
 H        -2.4266515126       -7.2746372370       -8.7017560445
 H        -2.2521984601       -8.8712828056       -8.0808047341
 H        -1.3159480255       -9.0673963207       -5.5575621940
 H         0.0849969867       -9.1310193518       -6.5597947920
 H        -0.0933167118       -8.0356435191       -5.1060245913
 H        -4.1177507008       -6.9213672800       -2.8733232644
 H        -4.9264196557       -6.5912446509       -4.4750192498
 H        -5.8002241191       -2.4100495474       -4.6471322670
 H        -6.8157591811       -2.0936195385       -3.2410808115
 H        -6.5217287417       -4.8797439187       -3.7610948867
 H        -7.0583574472       -4.1385643790       -2.2643897973
 H        -6.3931613966       -5.7813478118       -2.0448730277
 H        -4.7261647511       -4.4131445938       -0.2745737572
 H        -3.7080747162       -5.6748003539       -1.0559996249
 H        -3.1949200340       -3.9752868691       -1.1424583728
 H        -6.3724170276       -0.0518974219       -4.2199782359
 H        -5.8263131498       -0.0104544128       -2.5333623369
 H        -2.2398949010        2.7674778136       -1.9164131418
 H        -2.7575365988        1.5574306734       -0.7530052633
 H        -3.8356510009        2.1742149374       -5.5130594044
 H        -2.3660921926        1.3164766821       -5.5482426796
 H        -2.4780312791        2.9228506801       -4.8434807349
 H        -4.2615624809        3.1902241746       -2.7709572714
 H        -5.6076851090        2.2319370632       -3.3433703279
 H        -4.7493024537        1.6227145374       -1.8511486988
 H        -0.5195552802        0.4230672133       -0.9392645680
 H        -0.4687284462        2.1907039310       -0.4549314682
 H         4.4968908947        1.5794225017       -1.1138200556
 H         4.6575359497        3.2080824840       -1.8749152878
 H         2.0177506223       -0.5382096239       -2.2422322496
 H         1.4646923239        0.2374489080       -0.6586747360
 H         3.1973732498        0.1512492932       -1.2977953371
 H         2.0751150718        1.0473805674       -4.4628459784
 H         2.8799590345        2.5751213282       -4.0817886923
 H         3.5542019449        0.9913650817       -3.6905394125
 H         5.6842848813        3.3072009496        0.1986400769
 H         4.2090624928        4.1223609539        0.4451958048
 H         2.9950448641        3.2871898227        3.5219066273
 H         3.3774542351        2.1078257933        4.7922699862
 H         5.2345352156       -0.2495403316        2.7810116346
 H         3.9762096414        0.5838987113        3.6135739208
 H         5.4463787020        0.2642315146        4.3898955678
 H         6.9730247937        3.0281170528        1.6363399016
 H         7.5173640321        1.9574292197        2.9734162522
 H         6.9745901983        1.3086374544        1.4111075970
 H         3.4619019785        5.1679303033        5.1324872147
 H         4.0673409089        4.0435120629        6.3408793718
 H        -0.8389673385        5.1038354199        7.4018592002
 H        -1.0231617028        3.6218661504        8.0235417214
 H         0.8180582855        1.3852488626        5.8876900391
 H        -0.2284747826        2.7717573637        5.8061052354
 H        -0.3030900604        1.8229432202        7.2697381169
 H         3.2173163854        2.9379831824        8.3413920737
 H         2.3212318823        1.4814134564        8.5034309342
 H         3.2085678928        1.6983947242        6.9974514758
 H        -1.2678417510        4.4053693266       10.2486774558
 H        -0.1579274420        5.6750681504       10.0460826704
 H        -4.6253082013        4.8445541294       13.1922035984
 H        -4.1245478098        6.4914651186       13.0584029819
 H        -5.2823328732        5.6685866162       11.9175075931
 H        -0.7792554584        6.5687812557       11.5835540971
 H        -1.9674117332        7.2544774215       12.5516130451
 H        -1.3614774786        8.2579746032       11.1320067504
 H        -3.4285440025        8.6403925742        9.8630428232
 H        -4.6139600887        7.2385897667        9.8835904297
 H        -4.1221333427        8.0639755383       11.3865707988
 Na       -2.2357445897       -2.0474402513       -4.1734539574
