155

 C         2.0320084984       -3.6922270200       -4.0570983420
 C         0.9466654417       -2.6177509247       -4.2227463668
 C         0.8351313199       -1.8737624081       -5.5457610540
 C        -0.1529718277       -2.7733720301       -6.4131107023
 C         0.3088522400       -3.6185114882       -7.8127374456
 C         0.3103351655       -0.4503170526       -5.4519360254
 C         2.1732056051       -1.6951894124       -6.1945218936
 O         0.1750981705       -2.3914337097       -3.2759299857
 O        -1.3059741664       -2.8045183211       -6.1064530018
 C        -0.5979214692       -4.8305175682       -7.9264026765
 C        -0.4089635974       -5.9077116558       -6.8753013295
 C        -1.0193030893       -7.2949977734       -7.1249376700
 C        -2.3975817627       -7.1515317845       -6.2417126774
 C        -2.2876488799       -7.1490653102       -4.7570701360
 O         0.1339562199       -5.7020864247       -5.8256928129
 O        -3.5515585374       -7.2442593485       -6.7414797665
 C        -1.2951272788       -7.5265486575       -8.6382569795
 C        -0.1399737212       -8.4989510512       -6.6374462209
 C        -3.5773497231       -6.6914103777       -3.9742613299
 C        -3.6141490817       -5.1557974734       -3.6483968174
 C        -4.5954122808       -4.6718074631       -2.4574471657
 C        -4.6885358501       -3.0788510334       -2.6322739769
 C        -5.9996423470       -2.1466202116       -3.0084266529
 C        -6.0245619256       -5.2860618059       -2.5343796049
 C        -3.8161827550       -4.9005714327       -1.1655495891
 O        -2.8106739683       -4.4679405555       -4.2209217478
 O        -3.7284546473       -2.4073084063       -2.2574377106
 C        -5.5779930669       -0.6886425052       -2.7457293795
 C        -4.4396855164       -0.0999991882       -3.7088118549
 C        -3.8474567404        1.4239610083       -3.5687837852
 C        -2.3465509267        1.2805092851       -3.0334202457
 C        -1.6965124397        2.5007351562       -2.3613177311
 O        -4.0462522395       -0.8467490424       -4.6148181542
 O        -1.7215914828        0.3024027473       -3.1912137166
 C        -4.0631867097        2.0635094801       -4.9141372662
 C        -4.5853251479        2.1433402017       -2.4282443060
 C        -0.4119293196        2.0252680536       -1.6201493936
 C         0.7745551409        1.9750991623       -2.5575220231
 C         2.1716089102        1.4272814765       -1.9569114358
 C         2.8208942995        2.4912716147       -1.0101821523
 C         4.3525384423        2.7594968248       -1.0922497710
 C         1.9665104834        0.0605575122       -1.0466794744
 C         3.0693052382        0.9010585604       -3.0458937759
 O         0.7256878704        2.3923760622       -3.7450793228
 O         2.1102761635        3.1391182484       -0.2615009620
 C         4.7408573387        3.2775014035        0.4059451512
 C         4.6102803369        2.1809546040        1.4422258223
 C         5.2158698419        2.1770957022        2.9198105892
 C         4.6202618276        3.2288737748        3.8543214256
 C         3.3093224748        2.7008043867        4.4913714397
 O         3.9341865742        1.2053184402        1.1330909684
 O         5.0411873260        4.3282806433        4.0702271920
 C         5.1654203593        0.7743880826        3.4504575175
 C         6.7430864075        2.5860517721        2.7984628212
 C         2.7101874617        3.7088475680        5.3987472494
 C         1.2364527285        3.4004167020        5.7570468675
 C         0.9322543983        2.6922150628        7.0816601833
 C         0.8214622110        4.0403590816        8.1117960117
 C        -0.4867491034        4.8813113103        8.0780285686
 C        -0.3561589373        1.9947281322        7.1252712702
 C         2.1292731280        1.7899870898        7.6805208635
 O         0.2591291952        3.7285516772        5.0301579535
 O         1.9085484311        4.4254763987        8.5802706244
 C        -1.0313748487        5.4389238072        9.5025048598
 C        -2.2424984749        6.3858533568        9.3044171917
 C        -3.0409515975        6.5789022772       10.6790579132
 C        -4.0164345599        5.2480569405       10.8402071037
 C        -5.3577927370        5.3490730547       11.5621554583
 O        -2.4908814593        6.9915567996        8.3106232814
 O        -3.6397705403        4.1140088110       10.5124045618
 C        -2.1125912981        6.4817700327       11.9860694057
 C        -3.9294192719        7.8924689971       10.6550824961
 H         1.5825595552       -4.6344717427       -4.3978744788
 H         3.0209256029       -3.4382569839       -4.5473191877
 H         2.2720657522       -3.9723459305       -3.0292942577
 H         0.1785947383       -2.8878813236       -8.6155956445
 H         1.2927503084       -3.9622318407       -7.8501496176
 H         1.0625621214        0.2702875086       -5.0826379797
 H        -0.4434723980       -0.3318980681       -4.7550435446
 H        -0.1320298064       -0.1632535805       -6.3687949365
 H         3.0170020524       -1.7338492744       -5.4834305265
 H         2.5891789163       -2.4589914174       -6.8001232975
 H         2.2671849309       -0.7641736444       -6.6673004377
 H        -1.6369047345       -4.4704476404       -7.7174897610
 H        -0.4423529669       -5.1798317054       -8.9106120658
 H        -2.2542828935       -8.2589347388       -4.5712186315
 H        -1.3159705137       -6.7557015275       -4.4520939749
 H        -0.3369330773       -7.4563926214       -9.1464585520
 H        -1.9253412617       -6.6984193805       -9.0328738896
 H        -1.8012412308       -8.4448697160       -8.9078232712
 H        -0.5455418783       -9.4536004701       -6.8789084503
 H         0.8280591123       -8.3503028886       -7.1691157363
 H         0.0278639907       -8.4420236118       -5.5832961398
 H        -3.5478829861       -7.0369348689       -2.9729117920
 H        -4.4782656249       -6.9084836950       -4.5566775582
 H        -6.3997494792       -2.2052705747       -4.0093273633
 H        -6.8034681486       -2.3619018920       -2.3142067708
 H        -6.5760013045       -4.8193216341       -3.3518765075
 H        -6.6762899651       -5.0068215563       -1.7114039768
 H        -6.0584961904       -6.3382065183       -2.5839007391
 H        -4.4346512963       -4.7857761304       -0.2413201326
 H        -3.4273702346       -5.9237987191       -1.1445845088
 H        -2.9663820126       -4.2082589196       -1.0640903899
 H        -6.4287283232       -0.0685734727       -2.6314363777
 H        -4.8958009519       -0.7066489099       -1.8341720416
 H        -1.4608122062        3.1485812169       -3.2451898517
 H        -2.4830733396        2.9954849613       -1.6659254142
 H        -5.1247559082        1.9572967810       -5.3499707808
 H        -3.3658525531        1.6288975700       -5.6043471336
 H        -3.6621929141        3.0935566415       -4.8564588288
 H        -4.3324840349        3.1826305987       -2.2917399888
 H        -5.6569720450        2.1898895290       -2.5691374450
 H        -4.3012768185        1.7716476174       -1.5120875230
 H        -0.5211551908        1.0234521073       -1.1853641557
 H        -0.1506201396        2.4957862408       -0.6962837687
 H         4.8228851400        1.8205388118       -1.3706685584
 H         4.6710249610        3.5399675301       -1.8172082390
 H         1.5583506870       -0.6544186760       -1.6903804559
 H         1.2867237943        0.3356418066       -0.2353202924
 H         2.9743533902       -0.2508108000       -0.6447474777
 H         2.6386930012       -0.1038852538       -3.3535562537
 H         3.0362477433        1.5176583303       -3.8835394311
 H         4.1083153229        0.6879236806       -2.7498529613
 H         5.7637271577        3.7024009463        0.4027442626
 H         3.9449218953        4.0008458216        0.6888237109
 H         2.6549592087        2.5543434443        3.6343364966
 H         3.5203308600        1.7231583847        4.8882243717
 H         5.7596823752        0.1077188413        2.7749287129
 H         4.1359006981        0.3559878566        3.3482239760
 H         5.5157209537        0.7057457592        4.4687165500
 H         6.8453385189        3.5565967484        2.3850345688
 H         7.3459957566        2.7578749682        3.7433603285
 H         7.2842137515        2.0208594391        2.0965941669
 H         2.7053196935        4.7125230496        4.9253446184
 H         3.2830483489        3.7036081543        6.3649593580
 H        -0.2998581733        5.9297434449        7.6088508798
 H        -1.2734479644        4.2529514139        7.6067723065
 H        -0.1920950523        1.0877803826        6.5043851301
 H        -1.0001289522        2.5649367321        6.4974518712
 H        -0.6672131898        1.7747907120        8.1906866094
 H         2.8058401747        2.2757942316        8.3686583446
 H         1.6672098028        1.0399889603        8.3444400326
 H         2.7355496635        1.2963510096        6.8662190834
 H        -1.3736466918        4.6065080695       10.1543830542
 H        -0.3408561178        6.1433640211        9.9741743882
 H        -5.7328786611        4.3631977124       11.7149282961
 H        -5.0858705172        5.7060920208       12.5674390799
 H        -6.0890185054        6.1577555927       11.3827589971
 H        -2.0516299750        5.3972981356       12.3156633640
 H        -2.6971674551        6.9872940010       12.7077212539
 H        -1.0289789479        6.8074778161       11.9493449067
 H        -3.3566896858        8.7593514591       10.3086888224
 H        -4.6709343998        7.6486067272        9.9004655011
 H        -4.4415622359        8.1553121104       11.6017543785
 Na       -1.9449020914       -1.7616194021       -4.1193470001
