155

 C         2.0870708454       -3.5433689222       -4.0963124013
 C         1.1554791396       -2.4030900646       -4.3486922122
 C         1.1167379898       -1.8155760515       -5.8362033446
 C         0.0002099604       -2.5942365247       -6.6363240916
 C         0.5091878051       -3.5717619492       -7.8091101731
 C         0.6214004176       -0.3395888448       -5.7418473053
 C         2.5413441968       -1.8098155239       -6.4856230635
 O         0.3683665770       -2.0113664697       -3.4805021283
 O        -1.1445342736       -2.7193948532       -6.2897212357
 C        -0.6086245764       -4.6892608852       -7.9387370566
 C        -0.3177670339       -5.8778237919       -6.9409419151
 C        -1.1510557469       -7.3172278984       -7.1158800464
 C        -2.4524176637       -7.0770370270       -6.2365764535
 C        -2.3392484689       -7.0124672331       -4.6712406731
 O         0.5930645926       -5.7915823218       -6.1332492072
 O        -3.4531874288       -6.6874481956       -6.8051617135
 C        -1.4746428913       -7.6087814003       -8.6145150552
 C        -0.2839849541       -8.3469719325       -6.4724718372
 C        -3.6110692254       -6.5246549959       -4.0271308947
 C        -3.4159784229       -5.0619970890       -3.5663763291
 C        -4.4382914541       -4.6024857088       -2.5056307238
 C        -4.5322710625       -3.0406228247       -2.3019669668
 C        -5.8528082807       -2.3578872509       -2.5820054312
 C        -5.8875894283       -5.2862426338       -2.9247697993
 C        -3.9921304116       -5.1774784461       -1.1270859615
 O        -2.5217588036       -4.4834477679       -4.1388019953
 O        -3.5517922839       -2.4116861850       -1.8886583374
 C        -5.6316844705       -0.8939480640       -2.6209042551
 C        -4.6233697109       -0.3171009711       -3.6395985707
 C        -4.0206675979        1.1882675009       -3.4317086693
 C        -2.4830764357        1.0054455647       -3.0485438121
 C        -1.7263204782        2.3158628722       -2.6748697048
 O        -4.3170397041       -1.0678082795       -4.5655686867
 O        -1.9819407333       -0.0512895576       -3.1093171594
 C        -3.9145450540        1.8855566205       -4.8785598903
 C        -4.7962354402        2.0699615269       -2.4698367691
 C        -0.4905611222        2.1638291594       -1.6969061479
 C         0.9129396159        2.1714290171       -2.4547711583
 C         2.2312593600        1.5525325486       -1.7657879091
 C         2.7743949481        2.6378969560       -0.6548564781
 C         4.2821237894        2.9553749662       -0.8099784849
 C         1.8349539433        0.1496240070       -1.2051712341
 C         3.2871161753        1.2698299230       -2.9118854811
 O         0.9539132616        2.6379909690       -3.6145304662
 O         2.1390992240        3.0397189338        0.2550044789
 C         5.0067014353        3.1211028219        0.4572682849
 C         4.7526431005        1.9858192939        1.5035990256
 C         5.4094371192        2.3281543490        2.9422415794
 C         4.4141537013        3.3193037217        3.6594459912
 C         3.0382488657        2.6242823091        4.1613468978
 O         4.2452511322        0.9455012504        1.2377636006
 O         4.7839393093        4.4568452642        3.8618349672
 C         5.4463750542        0.9535230560        3.6551478860
 C         6.8061936049        2.9025909128        2.8504840044
 C         2.3417558103        3.5241904488        5.0964309133
 C         1.0299524045        3.0398120358        5.6460436936
 C         0.8033233765        2.8841795338        7.2698598293
 C         0.7161492129        4.2040586705        8.1725925175
 C        -0.5226096362        5.0667544736        7.9722447861
 C        -0.6785549680        2.2337937487        7.2940812915
 C         1.8012485028        1.9427341226        7.8709909477
 O         0.1612224516        2.7291661535        4.8511648949
 O         1.5796144398        4.3275330572        9.0282448633
 C        -1.1365857172        5.2540956801        9.4547965267
 C        -2.2343939424        6.4157863133        9.4580180814
 C        -3.1592976261        6.4971952847       10.7202919503
 C        -4.1079762135        5.3056478061       10.5228938325
 C        -5.5291381886        5.3400016930       11.1104675968
 O        -2.3423056162        7.1573141741        8.5517685802
 O        -3.7297586670        4.3170669326        9.8925721853
 C        -2.4201162444        6.2506338559       12.0006221303
 C        -3.9578445861        7.8178708885       10.7424159246
 H         1.8573411544       -4.3141957720       -4.7341690941
 H         3.1385124876       -3.3193148564       -3.9457421558
 H         1.7238183652       -4.0260135324       -3.1119772280
 H         0.8468374222       -3.1677269771       -8.7744925230
 H         1.3735947335       -3.9421173111       -7.3134853756
 H         1.0860814495        0.1984242339       -4.8860517465
 H        -0.4778237396       -0.2921082458       -5.6654772831
 H         0.8171231567        0.2000019094       -6.6809702170
 H         3.3439600666       -1.4936539994       -5.7045789854
 H         2.9315210105       -2.6884496813       -6.9985810081
 H         2.6310565785       -1.0055612112       -7.1780999495
 H        -1.5700557907       -4.1434415036       -7.6474101570
 H        -0.7834771543       -5.0019738387       -8.9787016780
 H        -2.1874104778       -8.0892931010       -4.3371388364
 H        -1.3984133492       -6.4905871008       -4.3715601280
 H        -0.6612368332       -7.6490750287       -9.2546233436
 H        -2.2017279592       -6.8518567705       -8.9819596903
 H        -1.9462894279       -8.5238495595       -8.6371759300
 H        -0.8865291702       -9.2285892042       -6.2718688674
 H         0.4567914310       -8.7617468027       -7.1792142579
 H         0.0557349279       -7.9813691470       -5.5057486850
 H        -3.8407318332       -7.1582448472       -3.1582243443
 H        -4.4539273223       -6.5434360599       -4.8173806042
 H        -6.2388911372       -2.7757506176       -3.5283557586
 H        -6.6106703171       -2.4987407598       -1.7975507858
 H        -6.1766933853       -5.0181016068       -3.9524538801
 H        -6.6964289119       -4.9103763138       -2.3086286505
 H        -5.9443274957       -6.4193215156       -2.6727754720
 H        -4.5004716233       -4.6951303761       -0.2573964175
 H        -4.1669412939       -6.2265776128       -1.0662715715
 H        -2.9048052101       -5.1247898893       -0.9513654522
 H        -6.4808975478       -0.2495671473       -2.5615035792
 H        -5.0989642567       -0.7713614188       -1.6039461071
 H        -1.4041647976        2.7617774314       -3.5914115649
 H        -2.4540778997        2.9844887798       -2.0977067936
 H        -4.8683011106        2.1198405058       -5.3623702416
 H        -3.3511085122        1.2839336801       -5.5085535760
 H        -3.4291007499        2.8389768359       -4.7667662494
 H        -4.5143728377        3.1441291486       -2.4628293650
 H        -5.8841439571        2.1392045124       -2.8143970048
 H        -4.8340628758        1.7142463609       -1.4944630279
 H        -0.5196811654        1.3667998408       -0.9863920876
 H        -0.4772674650        2.9618120852       -0.9973825872
 H         4.7733220392        2.1746447539       -1.4275610651
 H         4.4255903804        3.7679633904       -1.5778562519
 H         1.4124557280       -0.4434729374       -2.0113555724
 H         1.1849291974        0.3035517957       -0.3334585846
 H         2.7799499218       -0.3897054261       -0.9601402510
 H         2.8295810087        0.5871933593       -3.6783131439
 H         3.6898467072        2.1168688246       -3.3125830925
 H         4.0555322729        0.6224226620       -2.4366531031
 H         6.1262677145        3.1459565647        0.3531718721
 H         4.7282884121        4.0283597894        1.0317907241
 H         2.4930420485        2.4700309496        3.2446895979
 H         3.3572118048        1.6772624332        4.5658510459
 H         6.3878133072        0.4981407536        3.2905241707
 H         4.5540883354        0.2861950813        3.6248383355
 H         5.6466219822        1.1700771069        4.6823057932
 H         6.8644634152        3.8829349087        2.4277103057
 H         7.3305426662        2.9025639173        3.8404266301
 H         7.4875444846        2.4094536346        2.1294938653
 H         2.0744961808        4.3936740943        4.5125062878
 H         3.0078892201        3.7368213557        5.9616490735
 H        -0.1560367098        6.0321127461        7.4643091757
 H        -1.3147385078        4.5682551133        7.3542811268
 H        -0.5705192555        1.2670461379        6.8804701832
 H        -1.3415159313        2.8420442177        6.6933566373
 H        -0.9896129684        2.2535651872        8.3399455040
 H         2.7752884954        2.3795264576        7.6644420576
 H         1.7571667860        2.1252192813        8.9716490563
 H         1.6266741951        0.8435589229        7.6887655721
 H        -1.6225198509        4.3097211977        9.7651562757
 H        -0.2940318742        5.5907440922       10.0815071314
 H        -6.1643079603        4.4320834895       11.2385579875
 H        -5.3865353518        5.8010710394       12.0563432948
 H        -6.2451198435        6.0778101529       10.5986788648
 H        -1.6453938301        5.4583920451       11.9817672077
 H        -3.0976564507        5.9730007125       12.7511485623
 H        -1.9225685495        7.1960630796       12.3780884198
 H        -3.2491340100        8.5771429954       11.0422586332
 H        -4.3973158007        8.1048000070        9.7661852707
 H        -4.7292939417        7.8948837829       11.5601890385
 Na       -2.0026256016       -2.1409515917       -4.0076611599
