155

 C         2.7977114714       -3.3815679400       -4.9472617858
 C         1.6191219631       -2.5409199947       -4.8042157651
 C         1.0643879176       -1.5433580385       -5.9528288231
 C        -0.1502482702       -2.1970629401       -6.5500414777
 C         0.0105179604       -2.9728015253       -7.8748893422
 C         0.8853763740       -0.2121070202       -5.1840946556
 C         2.1196478509       -1.2241605001       -7.0105686690
 O         0.8712360541       -2.6151113076       -3.8755152386
 O        -1.2176667634       -2.2427521945       -5.9377549406
 C        -0.8490110714       -4.3296279998       -8.0439012708
 C        -0.1850499203       -5.4746867544       -7.2789867601
 C        -0.9928011269       -6.8275502515       -7.2431748897
 C        -2.1725074783       -6.6717537915       -6.1811579972
 C        -2.0767118981       -6.9885661205       -4.7181092794
 O         0.9045326139       -5.4016159026       -6.7573909239
 O        -3.1919856175       -6.1096224451       -6.6442477071
 C        -1.5483707804       -7.1859776673       -8.7200128008
 C         0.0297556404       -7.9519951921       -6.8370057484
 C        -3.3217209931       -6.4720233625       -4.0149086990
 C        -3.0362531339       -5.1852302843       -3.3288329458
 C        -4.0437755686       -4.7048036141       -2.1793187734
 C        -3.9046150819       -3.1493314818       -2.1124910585
 C        -5.1510984707       -2.3250461978       -2.4836656277
 C        -5.4766807261       -5.2261066842       -2.6039345696
 C        -3.5964209297       -5.3931734229       -0.8357627255
 O        -1.9953820765       -4.5252693430       -3.5640055093
 O        -2.8858869269       -2.7021841276       -1.7176478808
 C        -4.7766835161       -0.7482771144       -2.4338166556
 C        -4.0068117362       -0.3879922662       -3.7467393461
 C        -3.1522035934        0.8461927468       -3.6517158785
 C        -2.0189103479        0.6739147518       -2.5665015443
 C        -1.6983668549        1.8298189110       -1.5637546629
 O        -3.9664276809       -1.0981825860       -4.7146066321
 O        -1.4008093325       -0.3701954714       -2.4744899499
 C        -2.4881776024        0.9286345002       -5.0312526634
 C        -3.9858605348        2.0520986024       -3.2545016280
 C        -0.2837095450        1.7133186780       -0.9958715652
 C         0.7410786620        1.8709601460       -2.1907442491
 C         2.2623421851        1.6694136160       -1.8086915258
 C         2.8056328870        2.4375120844       -0.5021331478
 C         4.1778537521        3.0752967177       -0.6106896053
 C         2.5121093223        0.1313350525       -1.4333564031
 C         3.0420214322        1.9676741843       -3.1066967936
 O         0.2805819541        2.1193410389       -3.3132261046
 O         2.0717465751        2.4263745430        0.4814842689
 C         4.4100751025        3.6586720003        0.8395375969
 C         4.7809410830        2.6360135869        1.9481484234
 C         4.8281085608        2.9774509181        3.4332400472
 C         3.3148772684        3.4179823704        3.8274165251
 C         2.3013685032        2.3830809404        4.4291003265
 O         5.1189085350        1.5084659789        1.6162369953
 O         2.9299442049        4.4588702908        3.4296429840
 C         5.4277429310        1.7420366421        4.2498305312
 C         5.8059843607        4.1891727229        3.6164654643
 C         1.3183899072        3.1803481981        5.3653205410
 C         0.3822074927        2.2457746807        6.1101990970
 C         0.2066386705        2.2488396382        7.6343133851
 C         0.2869782801        3.7629138086        7.9145904164
 C        -1.0539205538        4.5556923233        7.9562835049
 C        -1.1322676494        1.4591000461        7.9171893411
 C         1.3752975947        1.4461305876        8.2500101653
 O        -0.1138105644        1.3614540692        5.4277698112
 O         1.4147845877        4.2293351505        8.2276876600
 C        -1.3701488393        5.0464428826        9.4095645338
 C        -2.3255658171        6.2123870903        9.3193308564
 C        -3.6441355759        6.3068280291       10.1186143434
 C        -4.6754002620        5.8762987408        9.0972885651
 C        -6.1435150020        5.5895073780        9.5619697080
 O        -2.0856641479        7.1495959087        8.5579365066
 O        -4.4243472781        5.6201685791        7.9126348615
 C        -3.6104587425        5.2746724020       11.3479978753
 C        -4.0566965652        7.7407372968       10.5805618729
 H         2.6255400237       -4.0468221929       -5.8530109268
 H         3.7284986531       -2.8181565067       -5.0304414857
 H         2.8583381386       -4.1009435115       -4.1126812458
 H        -0.3678251646       -2.2884807995       -8.5770022732
 H         1.0619992499       -3.2258897826       -7.9553796961
 H         1.8697575115       -0.0401953366       -4.6912917477
 H         0.0614456628       -0.2142941803       -4.4675760718
 H         0.6708264566        0.6224732508       -5.9230510450
 H         1.7627401093       -1.2997181246       -8.0134541393
 H         2.4542462003       -0.1909579771       -6.9969548849
 H         3.0351435934       -1.8857323228       -6.9017462658
 H        -1.7494462858       -4.1603590502       -7.5696000399
 H        -1.1172648381       -4.7433462931       -9.0193968942
 H        -1.9677191908       -8.0752391842       -4.6225955181
 H        -1.2760367640       -6.4187340055       -4.2720491793
 H        -0.7940650763       -7.5938106154       -9.3399006215
 H        -1.9311434491       -6.4268698417       -9.3075713217
 H        -2.2731865018       -7.9743397761       -8.6899518952
 H        -0.5307238903       -8.9168984711       -6.8132147505
 H         0.7851235068       -8.1138763217       -7.5792892993
 H         0.3610676481       -7.7873549406       -5.7909345111
 H        -3.7601430703       -7.2156580700       -3.3591590807
 H        -4.1347585280       -6.3713813816       -4.7134315914
 H        -5.6408000714       -2.6130306456       -3.4190732880
 H        -5.8222645976       -2.4797446142       -1.6736246182
 H        -5.6392991445       -4.9831919712       -3.6171600879
 H        -6.2084976143       -4.7586107782       -2.0060412357
 H        -5.5286180370       -6.2894347072       -2.5364147294
 H        -4.3514322129       -5.2265425438       -0.0916892535
 H        -3.4381955885       -6.4772556272       -0.9083328353
 H        -2.6557571469       -5.0541825659       -0.4580185603
 H        -5.6800497400       -0.2680726028       -2.1586932213
 H        -4.0734378184       -0.7508185028       -1.5606289722
 H        -1.7684241248        2.7875985142       -2.0619881417
 H        -2.4436458209        2.0438571012       -0.7465448871
 H        -3.2441288673        1.0550111243       -5.8114967247
 H        -1.8975560011        0.0690865077       -5.1808290878
 H        -1.8644656147        1.8045968181       -5.0183258127
 H        -3.3125480552        2.8838326948       -3.2842782445
 H        -4.8053905923        2.2593022064       -3.8795945888
 H        -4.3977720849        1.9063206106       -2.2209798542
 H        -0.2879249015        0.6567717122       -0.6663299632
 H        -0.0847913091        2.4704411101       -0.1360298259
 H         4.9068114604        2.3142641377       -0.8053779768
 H         4.1512111540        3.8461250259       -1.3381942845
 H         2.2564973919       -0.6354072894       -2.2202822628
 H         1.8781669719       -0.0668693232       -0.5621410187
 H         3.5514539028       -0.0680193399       -1.1868575369
 H         2.6846686369        1.4076095150       -3.9187227936
 H         2.9387072648        3.0729245131       -3.3076704036
 H         4.1084598006        1.6986258118       -3.0264198044
 H         5.3106177504        4.2508572056        0.8733258781
 H         3.6015010990        4.2677306600        1.2204305084
 H         1.9560089575        1.8432173421        3.5375297798
 H         2.8565908462        1.5925071063        4.9065868455
 H         6.4460085140        1.6597817828        3.9205774568
 H         4.7651226031        0.9813069699        3.9155535265
 H         5.3839176239        1.9868421909        5.3191442250
 H         5.5550810667        5.0950281632        3.0230524845
 H         5.9321791073        4.4214422981        4.6942688203
 H         6.7864989276        3.9250482105        3.2559466736
 H         0.6428474400        3.8685025942        4.8424112498
 H         2.0240265355        3.7579046373        6.0100683935
 H        -0.8667827349        5.4710381416        7.3894884492
 H        -1.7678904627        3.8594356299        7.4454052098
 H        -0.8688125318        0.3860766545        8.1030599328
 H        -1.9425264826        1.5591540969        7.2006614262
 H        -1.4885377832        1.8242239209        8.8672857225
 H         2.0509407350        2.1831127920        8.6959134210
 H         1.0964713535        0.8540567211        9.1228901828
 H         1.7589538152        0.7902579603        7.4907097284
 H        -1.8163819475        4.1730860035        9.9491784790
 H        -0.3445528680        5.1607064657        9.9383023746
 H        -6.9398303928        5.6460254087        8.8606156612
 H        -5.9968759796        4.5030246900        9.9240430489
 H        -6.2074185988        6.1086832545       10.4820163435
 H        -3.8873180455        4.2769947709       11.0564689670
 H        -4.1811220258        5.4290285422       12.3196813191
 H        -2.5694243097        5.2667392425       11.5987950786
 H        -4.6003454424        8.2967862747        9.7622736050
 H        -4.7024915354        7.5329639161       11.4360888215
 H        -3.2080193534        8.3186251837       10.9405627087
 Na       -1.4692347970       -2.2836491829       -3.7082500259
