155

 C         2.7602761789       -3.4970443315       -5.1928662457
 C         1.5182393397       -2.6345677091       -4.9125438408
 C         1.1151058305       -1.5821045782       -6.0172270426
 C        -0.1628505604       -2.1838615631       -6.6621968760
 C        -0.1353775972       -2.9818265992       -7.9357868107
 C         0.7642260420       -0.1918416158       -5.4112976218
 C         2.2148812784       -1.2284931096       -6.9478532858
 O         0.8283768279       -2.8068826252       -3.9046453532
 O        -1.1426838268       -1.9999231416       -5.9885209363
 C        -0.9642120805       -4.2304956581       -7.7373721448
 C        -0.1901366445       -5.4026870907       -7.2019137019
 C        -1.0019966927       -6.7300741142       -7.2491130177
 C        -2.2120566245       -6.6158862134       -6.4100703690
 C        -1.9870777287       -6.9721462044       -4.9496185288
 O         0.9204624050       -5.3047107063       -6.6374320643
 O        -3.2705149094       -6.4146654821       -6.8863915477
 C        -1.4730682364       -6.9669475874       -8.7274450649
 C        -0.0621046628       -7.9329300197       -6.8098034274
 C        -3.1763438748       -6.5332666606       -4.0055116936
 C        -2.9156125527       -5.2540190493       -3.2223717129
 C        -3.9782977059       -4.8522941695       -2.1016551211
 C        -3.9105602572       -3.3179784769       -2.0459061483
 C        -5.0129871474       -2.4593395424       -2.6867412211
 C        -5.3852954582       -5.3425228704       -2.3836861192
 C        -3.5899476816       -5.4371594279       -0.6869190293
 O        -2.0498915510       -4.5080712179       -3.5245681851
 O        -2.9331689195       -2.8081257526       -1.4177231999
 C        -4.7548921844       -0.9278122094       -2.5412530062
 C        -3.9360077569       -0.4373792166       -3.6596266506
 C        -2.9943449397        0.8322322117       -3.5525155912
 C        -1.8166884579        0.6535214250       -2.4172620646
 C        -1.6380189054        1.6831848186       -1.2933735961
 O        -3.9315141422       -1.0418124387       -4.7749290326
 O        -1.1420305886       -0.3715249453       -2.4890662683
 C        -2.1992083063        1.1621954738       -4.8738561368
 C        -3.9195787441        2.0403778541       -3.4266959238
 C        -0.1229000195        1.9283871273       -0.9054933173
 C         0.8709810100        2.1238439336       -2.0793204533
 C         2.4070449333        1.6127058245       -1.7284313084
 C         2.8585938406        2.3390021074       -0.5159769999
 C         4.2291434179        3.1842132720       -0.4939374165
 C         2.4720311574        0.0724909962       -1.6527904852
 C         3.2270180253        1.9982267252       -3.0180310810
 O         0.5118378022        2.3034719662       -3.2006622306
 O         2.0305760690        2.4446740621        0.3857083849
 C         4.5751734629        3.7784480643        0.8263835575
 C         4.6701656593        2.6790656066        1.9075996799
 C         4.7471703882        3.0382807196        3.3974459857
 C         3.2173241935        3.5498976378        3.6615325395
 C         2.2478641702        2.4747617380        4.3535438779
 O         4.6647060383        1.5267621965        1.5795741461
 O         2.8456027922        4.7057426961        3.3689903098
 C         5.1867889045        1.9100931127        4.2832794806
 C         5.4753733612        4.4343397788        3.8483490091
 C         1.5858982569        2.9129984300        5.6058034878
 C         0.4794906373        2.0079685827        6.1353501357
 C         0.1751601225        2.0579145712        7.6213449162
 C         0.2657066810        3.6093678926        8.0175142077
 C        -1.0313545132        4.5116310159        8.0167345509
 C        -1.2052385656        1.4192288807        8.0733047573
 C         1.4107008436        1.3805188570        8.3928996915
 O        -0.1201184465        1.2959782612        5.3416532608
 O         1.2949354054        4.1146266954        8.2578442566
 C        -1.5166198489        4.8864034591        9.4153717565
 C        -2.3180884339        6.2604708113        9.2147357900
 C        -3.7067156200        6.2567119011        9.9769915214
 C        -4.9001058628        5.8721709695        8.9160717280
 C        -6.2485184214        5.4797959522        9.5069615455
 O        -1.9736546179        7.2001641449        8.5411380235
 O        -4.6093876713        5.7024903275        7.7726088955
 C        -3.8276826733        5.3720167605       11.1892156334
 C        -3.9508175342        7.7715739571       10.4782570138
 H         2.4822164852       -4.3923824954       -5.7296822152
 H         3.6336666529       -2.9649922165       -5.6302569084
 H         3.1122983921       -3.9243885342       -4.3105091572
 H        -0.6972352960       -2.4665538988       -8.7844145828
 H         0.8928712377       -3.3347067045       -8.1224823950
 H         1.6493536314        0.3672551705       -5.4094536894
 H         0.3562392805       -0.3258307591       -4.4194150116
 H         0.1013601874        0.3648922061       -5.9786849148
 H         2.5077788393       -1.9094489072       -7.7824520941
 H         1.8908300975       -0.3738143348       -7.5900486242
 H         3.0918486965       -1.0330102327       -6.3760790825
 H        -1.8676026438       -4.0507951241       -6.9957137782
 H        -1.3856866450       -4.6218471172       -8.6724767921
 H        -1.8813297996       -8.0527862361       -4.8722331663
 H        -1.1181283532       -6.4592501299       -4.5260896472
 H        -0.7722535566       -6.6287611978       -9.5601941974
 H        -2.4148115458       -6.4581099717       -9.0400116765
 H        -1.6468695871       -8.0556784031       -8.9045171257
 H        -0.6445381098       -8.7973839671       -6.6119354763
 H         0.4656498997       -8.1556714088       -7.7480057003
 H         0.6406633644       -7.7622817542       -6.0097188111
 H        -3.3418904341       -7.4306881508       -3.3566451609
 H        -4.1514565100       -6.5662057229       -4.5676613650
 H        -4.9535618866       -2.6245902553       -3.7614772496
 H        -6.0115546376       -2.8229412783       -2.3277611485
 H        -5.7416268706       -5.0244067064       -3.4281688295
 H        -6.0284129602       -4.8259754734       -1.5951180714
 H        -5.4047120427       -6.4203173129       -2.4794168501
 H        -4.4144577234       -5.3531219579        0.0597658990
 H        -3.2404504264       -6.4527875289       -0.6784864237
 H        -2.6661450813       -4.9370552811       -0.3155662012
 H        -5.7135262354       -0.3582417181       -2.5981057142
 H        -4.2509770834       -0.8561732026       -1.6026725411
 H        -2.2375335634        2.6200439815       -1.2860956216
 H        -2.1035903408        1.2276060032       -0.4364187977
 H        -2.8870783124        1.5237985653       -5.6440242980
 H        -1.6582056084        0.1999408311       -5.2157512832
 H        -1.5221398324        2.0446899096       -4.6501836155
 H        -3.3321487111        2.9290298007       -3.5201155366
 H        -4.7621719320        1.9933989408       -4.1451687800
 H        -4.5472013365        1.9806053772       -2.5283061206
 H         0.1982922167        1.0224827363       -0.3782461601
 H        -0.1080635670        2.7708341412       -0.2947311016
 H         5.0500830338        2.5767987579       -0.8806364391
 H         3.9233619039        4.0891015540       -1.0833081257
 H         2.1811850241       -0.4640861539       -2.5511066608
 H         1.8612951951       -0.2823458189       -0.7994514344
 H         3.5196866576       -0.2634728110       -1.4805921016
 H         3.0088705487        1.3677014433       -3.9241546492
 H         2.9161533768        3.0170517205       -3.2449696871
 H         4.2817111446        1.9897542263       -2.8819203684
 H         5.4504936843        4.4351205244        0.9575827590
 H         3.6633724630        4.3240074673        1.0736007379
 H         1.4813449137        2.1517160455        3.6209964756
 H         2.8357375971        1.5337155896        4.3806635891
 H         6.2365487441        1.7585579847        4.0619372955
 H         4.4102825071        1.1852334378        4.0483578545
 H         5.0512377982        2.2744205769        5.2666157211
 H         5.1147562634        5.2566535271        3.2571785829
 H         5.3292951019        4.4868611723        4.8723053681
 H         6.5848857157        4.4833035288        3.8106515418
 H         1.0957328878        3.8640123795        5.4280139789
 H         2.3446664531        3.0315488858        6.3482561359
 H        -0.8523137681        5.4214495788        7.4266208535
 H        -1.7272817381        3.8553976845        7.5638391032
 H        -1.1894750812        0.3447902140        8.1152091476
 H        -1.8409495197        1.7501636020        7.1949055389
 H        -1.7114406513        1.7792268156        9.0200371969
 H         2.2459391892        2.0918904481        8.3044746485
 H         1.2504655017        1.2676486535        9.4856570915
 H         1.5604477964        0.3441675472        7.9907613924
 H        -2.1375762772        4.0470467700        9.7027944844
 H        -0.7391892015        5.0370122769       10.0851301635
 H        -6.8223140290        5.6995325314        8.5953805209
 H        -6.2815284534        4.4813652531        9.6940155917
 H        -6.5616938497        6.0505390613       10.3946897531
 H        -4.0184553064        4.3012724155       10.9388736495
 H        -4.7783267234        5.5832558099       11.5732877892
 H        -3.1456829396        5.5727881257       12.0643603755
 H        -3.6708843873        8.3335723187        9.6388169999
 H        -4.9590075099        8.0315377727       10.8703858701
 H        -3.2319589910        7.9241486907       11.3205356552
 Na       -1.4426831976       -2.2733218553       -3.6699733739
