155

 C         2.6728681678       -4.5288495194       -5.0389035600
 C         1.8954884165       -3.2482507781       -4.9870916979
 C         1.9570197206       -2.3642953807       -6.3195507531
 C         0.5483370384       -2.6377246119       -6.9908366669
 C         0.4264769004       -3.0674142714       -8.5732362390
 C         1.8260470072       -0.8170669997       -5.8996911235
 C         3.2218132510       -2.7639119389       -7.1244215173
 O         1.1497551856       -3.0666578112       -4.0212562084
 O        -0.4429192929       -2.4655675338       -6.3316604778
 C        -0.7436607471       -4.0449279615       -8.7626824462
 C        -0.5187293087       -5.4062423242       -8.0732899112
 C        -1.5883917414       -6.5551728794       -8.1934602244
 C        -2.4036760892       -6.5529032756       -6.7923797827
 C        -1.6446104396       -7.2293231783       -5.5441584024
 O         0.4603178642       -5.6696018936       -7.4719458502
 O        -3.3523195634       -5.8503397131       -6.6457780771
 C        -2.5790818355       -6.4980249806       -9.4103577697
 C        -0.7859843940       -7.8144981936       -8.2039241197
 C        -2.2954861922       -6.8330708996       -4.1810929774
 C        -2.1405130887       -5.3617099252       -3.7809743043
 C        -2.4056255953       -5.0317203584       -2.1572883876
 C        -2.7144473351       -3.4876998380       -1.9898564112
 C        -4.1556658608       -2.8435642758       -1.6957096884
 C        -3.4161405103       -6.0778586126       -1.5203476532
 C        -0.9438129235       -5.2290860650       -1.5171996069
 O        -1.8468601085       -4.4876415830       -4.5676271869
 O        -1.7596457934       -2.7190268728       -2.0721096238
 C        -4.0598256299       -1.3263492618       -1.6343585773
 C        -3.4294092800       -0.6687784253       -2.8853856495
 C        -2.7793174090        0.7355676509       -2.7104325446
 C        -1.3806710736        0.5345679605       -2.1364601274
 C        -1.0139233210        1.2067150676       -0.7568506605
 O        -3.4745957025       -1.2772639012       -3.9618204830
 O        -0.6205165247       -0.1683768517       -2.7138316058
 C        -2.6769692630        1.5379671397       -4.0169574446
 C        -3.5950855049        1.5646698658       -1.6967925956
 C         0.5582189529        1.0205366493       -0.4595176626
 C         1.3143043994        1.9623813989       -1.4143072082
 C         2.6687325710        2.6294143869       -0.9384640194
 C         2.3996151005        3.5570835946        0.3249223321
 C         3.5134314726        4.6478045394        0.5523741051
 C         3.5835934117        1.3951110025       -0.4747521680
 C         3.3771568118        3.3489904599       -2.1430958240
 O         0.8317643471        2.2849676298       -2.4747365358
 O         1.4750073127        3.3618134641        1.0493809197
 C         3.8171473559        5.0895493385        2.0149213361
 C         4.1692876952        3.9034823047        3.0478450172
 C         4.3463243932        4.1930462964        4.5445201089
 C         2.8360492951        4.4375649083        5.1617108762
 C         1.7833248888        3.3135026451        4.9032900589
 O         3.8497308307        2.8704992272        2.6163769319
 O         2.5807223255        5.4976691763        5.6770334640
 C         4.9854740064        2.9464982849        5.2885249015
 C         5.2529692730        5.4696303337        4.7526124307
 C         1.1110785243        2.8307117509        6.1138139555
 C         0.0460350657        1.7957164618        5.9547710424
 C        -0.5557865364        1.3232278507        7.2682597557
 C        -1.0547258516        2.6254598373        7.9099210306
 C        -2.2627286050        3.4894690732        7.3911280829
 C        -1.6844062192        0.2846476679        6.9345743987
 C         0.5057562761        0.6263012847        8.0786431026
 O        -0.4542091335        1.3902364551        4.9580371355
 O        -0.4758273922        3.0552002212        8.8686084341
 C        -2.9420333134        4.3933596400        8.4419005650
 C        -3.2623818842        5.7555341067        7.8928237544
 C        -4.6299605477        6.3276666528        8.5019398518
 C        -5.7341758600        5.3409194815        8.0547932269
 C        -6.8714791537        5.7479792902        7.1573692502
 O        -2.4696951948        6.4127347569        7.2873139381
 O        -5.6473766153        4.1775937972        8.4107019096
 C        -4.5012044461        6.2247304758       10.0276891976
 C        -4.6582537433        7.7826496869        8.0760206715
 H         2.4973479550       -4.9973341140       -4.0504806885
 H         2.4072245227       -5.0568703366       -6.0082579896
 H         3.7138695955       -4.3272295248       -5.2081790168
 H         0.1421318330       -2.1652414648       -9.1792468900
 H         1.4550696525       -3.3473232765       -8.9078351695
 H         2.6855749851       -0.5010828555       -5.3350274417
 H         0.9906044549       -0.6765037987       -5.1964671613
 H         1.5808474919       -0.1920593485       -6.6907398611
 H         3.0735325758       -3.7582375497       -7.4859681618
 H         3.3050533556       -2.1924987202       -8.0428535412
 H         3.9898640050       -2.6818224099       -6.4275380614
 H        -1.6205011793       -3.6700574742       -8.2617132475
 H        -1.0344192498       -4.1156742063       -9.8856281865
 H        -1.7590409546       -8.2866815308       -5.7009424769
 H        -0.6203353479       -6.9418578740       -5.5931191926
 H        -3.4177462345       -5.8995253145       -9.1002838193
 H        -2.7978800118       -7.4599971746       -9.5249825460
 H        -2.0980988055       -6.1164468009      -10.2886215227
 H        -1.3101060767       -8.7479857335       -8.1629126356
 H        -0.1635898497       -7.7287421613       -9.1355044973
 H        -0.1224925132       -7.7222168418       -7.3868499524
 H        -1.8961171772       -7.5012039974       -3.4490165711
 H        -3.3833578459       -7.1700572718       -4.0777938828
 H        -4.7438368165       -3.2590426449       -2.5193929540
 H        -4.4317507087       -3.1400631811       -0.7094116125
 H        -4.3896159338       -5.9318306376       -1.8381857196
 H        -3.2976391456       -6.1156905538       -0.4724233554
 H        -3.1943932759       -7.0784446794       -1.9606493680
 H        -0.9107657116       -4.6649935109       -0.5999343181
 H        -0.7913643269       -6.3422694555       -1.3943511817
 H        -0.2355384361       -4.7812763761       -2.2231818180
 H        -4.9977863448       -0.8263868315       -1.5608405920
 H        -3.3952126422       -1.1392564548       -0.7456221806
 H        -1.3480869041        2.2428494374       -0.6437543365
 H        -1.6139710776        0.5023876903       -0.0236836247
 H        -2.6289167685        2.5589962126       -3.8318434916
 H        -3.6038069675        1.4808819084       -4.5606315501
 H        -1.9235614025        1.1866691785       -4.6992902726
 H        -3.1455940405        2.4601291937       -1.4662849874
 H        -4.5258380643        1.9231397566       -2.1986643656
 H        -3.9001298261        1.0428874130       -0.8155887786
 H         0.9345122296        0.0221068441       -0.6793831414
 H         0.8755947627        1.1998123705        0.6043272875
 H         4.3977459667        4.4278617771        0.0543810055
 H         3.0011978040        5.4707819173        0.0744513123
 H         3.7565473844        0.7294817225       -1.2879752329
 H         2.9371334525        0.7179314920        0.1474294868
 H         4.5973436780        1.4888075059        0.0341453165
 H         3.3815069754        2.6643816678       -3.0421884012
 H         2.8114322569        4.2608360759       -2.4131891666
 H         4.3390233282        3.5544165382       -1.8361348265
 H         4.6128793872        5.8351918955        1.8827744393
 H         2.9002700507        5.4930652986        2.4685414181
 H         1.0610976617        3.7976363994        4.1350204302
 H         2.1893500144        2.4249919763        4.3765032898
 H         6.0858703391        2.8993081987        5.2218921241
 H         4.7766895585        2.0042108912        4.8052199491
 H         4.7965495137        2.9075278712        6.3606620670
 H         4.6704609189        6.4215965892        4.7839015359
 H         6.0106483121        5.3281824447        5.4299293332
 H         5.7700283311        5.6722392828        3.7287732805
 H         0.6867865249        3.6991055270        6.5730531086
 H         1.9001216515        2.4757994116        6.7857646962
 H        -1.9688264260        4.1824345879        6.5391756856
 H        -2.9700153785        2.7589373473        6.9484842700
 H        -1.3015096692       -0.5340416486        6.4314141059
 H        -2.4909750948        0.7317885272        6.3453126512
 H        -2.2131397380       -0.0548587721        7.7939205013
 H         1.3453583976        1.3071947446        8.3048693491
 H         0.1472156479        0.3392152040        9.1018156650
 H         0.8624119663       -0.2452603759        7.5142962231
 H        -3.7955720202        3.9657812364        8.8215509272
 H        -2.1207769133        4.5511733048        9.0991759644
 H        -7.5474246145        6.4566296207        7.7483985369
 H        -6.6313038199        6.2028213074        6.2078724883
 H        -7.4495273441        4.7730411349        6.9479037800
 H        -4.5012830192        5.2101636949       10.4292428892
 H        -5.3114658364        6.7717433999       10.3998822372
 H        -3.5823923554        6.5730670450       10.4182554459
 H        -5.6531812753        8.0890198724        8.3414700427
 H        -3.9200715248        8.5013974200        8.2721014951
 H        -4.7332355755        7.8309061819        6.9765161088
 Na       -0.9200697402       -1.8921737691       -4.3570724882
