155

 C         3.1958568212       -4.7018874213       -6.1046478928
 C         2.3298319423       -3.6017274339       -5.5797177238
 C         2.1595369405       -2.3053155685       -6.4269470650
 C         0.7198014833       -2.3760370202       -6.9253142929
 C         0.5141304188       -2.6967365295       -8.3895182549
 C         2.2995922017       -1.1068376612       -5.4839620983
 C         3.1617963556       -2.1384916874       -7.6222810728
 O         1.7912552584       -3.6444823505       -4.4813493843
 O        -0.2973689001       -2.1383933510       -6.2999073078
 C        -0.6691027435       -3.7242049241       -8.6502953834
 C        -0.6313863799       -4.9494924317       -7.7018041261
 C        -1.7726745882       -5.9602617367       -8.0435758812
 C        -2.6441803419       -6.2718042407       -6.7033185177
 C        -1.9423058086       -6.8519031457       -5.5206618362
 O         0.2581759288       -5.0402898886       -6.8986969996
 O        -3.7970860392       -5.9703427510       -6.6922820355
 C        -2.8380905518       -5.6115901390       -9.1035001962
 C        -1.0521260762       -7.3358863227       -8.4579563569
 C        -2.5942528868       -6.5979842266       -4.1941879875
 C        -2.1084226440       -5.3631044626       -3.5232003532
 C        -1.9297410250       -5.1529631058       -1.9863244041
 C        -2.2971577852       -3.7331887491       -1.6076879591
 C        -3.7418865324       -3.2302630777       -2.0163558795
 C        -2.9503752659       -6.0250421611       -1.3037068079
 C        -0.5533850719       -5.4863275996       -1.5373264755
 O        -1.7683067662       -4.4685359613       -4.3053630806
 O        -1.5841032082       -3.1078983485       -0.8911459875
 C        -3.7567685129       -1.7203205621       -2.0327819557
 C        -2.9062748316       -1.0514188923       -3.1929400240
 C        -2.1094442249        0.2985943357       -2.8747684161
 C        -0.8984001073       -0.1050897604       -1.9362889648
 C        -0.5620353130        0.5637602968       -0.5845642437
 O        -2.6925983879       -1.6690339031       -4.1842541643
 O        -0.0544671459       -0.9525060527       -2.3308779256
 C        -1.4301906745        0.7646568019       -4.1841261712
 C        -3.0775705637        1.3720015018       -2.2371254062
 C         0.9514863993        0.9779495534       -0.3767866911
 C         1.2644453666        2.3289005828       -1.1061317865
 C         2.5125432804        3.1065801838       -0.6423285019
 C         2.1709320909        4.0048605887        0.6648111152
 C         3.0680289804        5.2667016681        0.8190485401
 C         3.6901078811        2.0799809683       -0.3258347345
 C         2.9509575707        4.0353042861       -1.8568919533
 O         0.4025133608        2.7024379462       -1.8873600284
 O         1.3072235249        3.6632687831        1.4071693211
 C         3.3149640075        5.4717035039        2.3500841770
 C         4.1176092988        4.3421116419        2.9830130781
 C         4.3298570803        4.2933924300        4.5822083713
 C         2.9276390123        4.3055957077        5.3425402007
 C         1.9695977557        3.1579972863        4.9632735480
 O         4.6875293110        3.5738840968        2.2806295063
 O         2.6444682601        5.1578487019        6.1961167680
 C         5.2481158261        3.1521281011        4.9121122528
 C         5.1396096816        5.5158993561        4.8569784584
 C         1.3292478161        2.5581008873        6.1848742021
 C        -0.0184357286        1.9038523173        5.8683054034
 C        -0.7105572975        1.1641347744        7.0431055842
 C        -1.5031388553        2.2053430210        7.9791083254
 C        -2.3957674451        3.2283685340        7.2285020562
 C        -1.7264992962        0.2286477247        6.3360790645
 C         0.1925974937        0.3410515496        7.9655262462
 O        -0.5177714353        2.1320480096        4.8122863591
 O        -1.5595640456        2.1376626606        9.1859926199
 C        -2.9675153992        4.4437282149        8.1028010793
 C        -4.1549738275        5.1377786072        7.4466649590
 C        -5.0569063208        6.1857989579        8.2062607347
 C        -6.5614263044        5.6775354384        8.0525609297
 C        -7.1479713321        5.4495459503        6.6427245279
 O        -4.2062987303        5.0221295576        6.2216743590
 O        -7.1425833320        5.4883555982        9.0811386574
 C        -4.7373631913        6.4419927021        9.6635064842
 C        -4.9624952852        7.4537545366        7.2950453523
 H         2.8365277591       -5.6948610009       -5.8376421250
 H         2.9593721733       -4.7674470502       -7.2183659391
 H         4.1957966981       -4.6799252636       -5.8373611269
 H         0.3536794706       -1.7427675673       -8.8864641991
 H         1.5144449324       -3.0729174401       -8.8096380884
 H         3.2844013868       -1.0070865442       -5.0870233502
 H         1.6916024781       -1.1996041124       -4.5739421135
 H         2.0851810344       -0.1957805509       -5.9608345492
 H         3.4139622493       -3.0215268042       -8.2011518698
 H         2.7978886079       -1.3557560283       -8.2367510831
 H         4.0709041949       -1.7084643724       -7.3735475225
 H        -1.6994187117       -3.2657056106       -8.5204083689
 H        -0.4444778047       -3.9452216411       -9.6803085570
 H        -1.8314098570       -7.9415485250       -5.6339324333
 H        -0.9441139396       -6.4910313219       -5.4353661758
 H        -3.1900050833       -4.5862347609       -8.8426445183
 H        -3.6533475789       -6.2162146081       -8.9135236920
 H        -2.4485179040       -5.6516041228      -10.1031676800
 H        -1.8231364663       -8.0828691656       -8.4757662588
 H        -0.6382715289       -7.3080147985       -9.4363806382
 H        -0.3870877442       -7.5972661582       -7.6768442117
 H        -2.4891416044       -7.5786461972       -3.6115259734
 H        -3.6682220494       -6.4804716217       -4.2843366761
 H        -4.1031558454       -3.7056890307       -2.8768770913
 H        -4.4091818744       -3.6235811723       -1.2166023866
 H        -3.9556965248       -5.7955717035       -1.5355255401
 H        -2.9586545786       -5.8628993354       -0.2512762867
 H        -2.7820499185       -7.1149347728       -1.5368229220
 H        -0.6047628829       -5.5548189269       -0.4540561195
 H        -0.2932397626       -6.4932175827       -1.9341303905
 H         0.1413181218       -4.7086104807       -1.8262756033
 H        -4.7499429168       -1.2937825908       -2.2471006365
 H        -3.5051826129       -1.1791256453       -1.1500850452
 H        -1.3483668207        1.3333560641       -0.2783125769
 H        -0.7534350450       -0.2107844516        0.1780136699
 H        -2.1000329800        0.6527880672       -4.9769809567
 H        -0.4101671309        0.3715241831       -4.2990692131
 H        -1.2582790523        1.8457709469       -4.0226289869
 H        -2.5613987599        2.1381585529       -1.7322218994
 H        -3.6056857884        1.8067298667       -3.1088222641
 H        -3.7239218760        0.9363089677       -1.5284688656
 H         1.5555320777        0.2548589948       -0.9567133833
 H         1.1286291470        1.0877635131        0.6547748376
 H         3.8840632106        5.2856467345        0.1591437122
 H         2.4516842860        6.0908216887        0.5018498503
 H         3.8660228891        1.2919875078       -1.0881480350
 H         3.4085076736        1.5688301080        0.6258421874
 H         4.6106053950        2.6875158958       -0.0551558321
 H         2.9760418075        3.3843466218       -2.7378032221
 H         2.2336517660        4.8570090335       -1.9435947131
 H         3.9478999080        4.3667283081       -1.7100189507
 H         3.7009155830        6.4431477885        2.6954266114
 H         2.3427546133        5.4864486758        2.8345459413
 H         1.1941676461        3.3365880334        4.1576219448
 H         2.7191344924        2.4177290725        4.6113013296
 H         6.3001370566        3.3017100727        4.6137096906
 H         4.9588521667        2.1920620056        4.4972523980
 H         5.2751523939        2.8359865594        5.9782259158
 H         4.6140943532        6.4976001469        4.6586986907
 H         5.5466788344        5.7364914845        5.7656753539
 H         5.9259827994        5.3675668546        4.0779701466
 H         1.2109564640        3.3892461842        6.9273501858
 H         2.0984955024        1.9714723380        6.6495988622
 H        -1.7148911671        3.6783258845        6.4799942557
 H        -3.2451405503        2.7664714719        6.7052772429
 H        -1.2540939848       -0.6661678365        5.8983533680
 H        -2.1962206318        0.7843036846        5.5519958472
 H        -2.4294563345       -0.1213119034        7.0691287608
 H         0.8111566339        1.0528568872        8.5846845607
 H        -0.4922938328       -0.0590723362        8.7572098741
 H         0.9092567739       -0.3857908725        7.5024629150
 H        -3.0781206649        4.0641017505        9.1337839675
 H        -2.2562906884        5.2812472652        8.1821802827
 H        -7.5248716676        6.3721593882        6.0656990276
 H        -6.4736501469        4.9405618215        5.9755034164
 H        -8.0574261191        4.7619540030        6.7861506856
 H        -5.2062971015        5.6893431826       10.2730991120
 H        -5.1110514950        7.3904399591       10.1609902646
 H        -3.6701840552        6.4511710747        9.6762767059
 H        -5.2074205880        8.4098526283        7.8349927998
 H        -3.9211729774        7.6773549331        7.0564320098
 H        -5.4744244282        7.3506537544        6.3539892097
 Na       -0.5738730672       -2.7028473795       -4.0215862847
