155

 C         3.4190526663       -5.0077049339       -6.1336133620
 C         2.6360227770       -3.8667081599       -5.6006434547
 C         2.3968571166       -2.5685277064       -6.4892854017
 C         0.8836966862       -2.3914921771       -6.6510584155
 C         0.2275123117       -2.2699552665       -8.0794073905
 C         3.0313181237       -1.4000860546       -5.8106512158
 C         3.0896545836       -2.6054635893       -7.9322695505
 O         2.2212321597       -3.9300239568       -4.4296002476
 O         0.1273330329       -2.3834735336       -5.6798679847
 C        -1.0578159878       -3.1000530963       -8.2656069923
 C        -0.8642043978       -4.6622934558       -8.0545846868
 C        -2.1261777091       -5.5688794902       -8.0129632227
 C        -2.4023965357       -5.7031638975       -6.4578453592
 C        -1.5711580657       -6.7167122421       -5.6992937420
 O         0.2692424255       -5.1078175567       -7.9333925454
 O        -3.2601650093       -5.0884366129       -5.9326783015
 C        -3.2897465601       -4.8603356703       -8.6694738533
 C        -1.8376852408       -6.8761085893       -8.7928316433
 C        -2.0227380589       -6.8068394659       -4.2051887248
 C        -1.3457896556       -5.6016702438       -3.3875957076
 C        -1.9060279374       -5.2620885110       -1.9267541058
 C        -2.0657812928       -3.7901078489       -1.8026293357
 C        -3.4149269044       -3.1383922682       -1.9866530067
 C        -3.2845757330       -5.9648115039       -1.7591466908
 C        -0.8670041870       -5.9296722404       -0.9280463988
 O        -0.4295059622       -4.9627286121       -3.8708987421
 O        -1.0702736955       -3.1562078752       -1.5834017871
 C        -3.3046686189       -1.6325665255       -1.9345322114
 C        -2.3359934571       -1.0758470550       -2.9902761839
 C        -1.6698676087        0.2643032615       -2.6720208620
 C        -0.3473210421       -0.0451814036       -1.7942898874
 C        -0.2277550813        0.1860890127       -0.2981717990
 O        -2.3208792598       -1.5817351598       -4.1008961092
 O         0.5717290749       -0.6241577803       -2.3129997319
 C        -1.0652281252        0.9467141931       -3.9682606840
 C        -2.7321148359        1.1710059036       -2.0156550288
 C         1.0399728697        1.0017628575       -0.0473540411
 C         0.9580422967        2.2887521011       -0.8394030157
 C         1.9631532047        3.3936426674       -0.5775594968
 C         2.2658989688        3.8894981311        0.9308977322
 C         2.7822802903        5.2774448721        1.0755630614
 C         3.3955013996        2.8440038918       -1.0478954321
 C         1.5149750067        4.5518065605       -1.5013461982
 O         0.0025088539        2.3714416999       -1.6043387380
 O         2.0816858789        3.2048630403        1.8765276798
 C         3.1189544245        5.5897848844        2.4724546487
 C         4.1470659525        4.5201493663        3.1046934887
 C         4.2945722957        4.4711676113        4.7662104392
 C         2.9219876925        4.3656790899        5.4261823080
 C         2.1443265512        3.0313120685        5.3505041469
 O         4.5571245169        3.6643030413        2.3468099461
 O         2.4487474150        5.2878363701        6.0821408922
 C         5.3437504914        3.3411147535        5.0815820095
 C         4.9156479690        5.8228772925        5.2069657859
 C         1.1204687543        2.9149421953        6.4641817574
 C         0.0159018008        1.8803753978        5.9201011401
 C        -1.0193627672        1.1585932574        6.8251241201
 C        -2.0305053548        2.0893353132        7.6629971153
 C        -3.2516361235        2.4917013118        6.8845503138
 C        -1.9124045393        0.2112657309        5.8616595677
 C        -0.4176906026        0.1763735534        7.8994055913
 O        -0.1032643271        1.7584502656        4.7296117249
 O        -1.8339092240        2.4997267305        8.7820367937
 C        -3.9957494716        3.6224557890        7.6394061439
 C        -4.9792662479        4.5354913641        6.8189604218
 C        -5.3535390052        5.9413287659        7.4351448295
 C        -6.8762959500        5.8575827111        8.0224234691
 C        -7.9810347979        6.1109275321        6.9862579237
 O        -5.5247417052        4.0839589524        5.7752136390
 O        -7.2013995976        5.5822113328        9.1537964622
 C        -4.4418304176        6.3712282509        8.6044665241
 C        -5.2652704988        7.0377891454        6.3210155964
 H         3.1635350452       -5.9040227897       -5.5837731585
 H         3.5778348110       -5.0603731913       -7.2632454497
 H         4.3908309674       -4.7809806698       -5.8585674726
 H        -0.0790821837       -1.2128934151       -8.2572745837
 H         1.0211007185       -2.5499192539       -8.7273139078
 H         4.0445078384       -1.5381757981       -5.6766336537
 H         2.4746800184       -1.1387915325       -4.9006078840
 H         2.9950991871       -0.5630884937       -6.4601387253
 H         2.8208302264       -3.4857959049       -8.5455328224
 H         2.8607041965       -1.7137169304       -8.4855354253
 H         4.1538624530       -2.6349970827       -7.9419647355
 H        -1.9494607090       -2.7595536139       -7.6968588558
 H        -1.4256288741       -2.8222335273       -9.3100788561
 H        -1.6600291980       -7.7436161232       -6.0456372377
 H        -0.4416487531       -6.5364158639       -5.7767983377
 H        -3.7292490283       -4.1825989845       -7.8800906027
 H        -4.0745839681       -5.4532294738       -9.0736746093
 H        -2.9731289975       -4.2717422280       -9.4824704513
 H        -2.5031652902       -7.6561305015       -8.3945786397
 H        -1.9352733059       -6.7748140254       -9.8373429935
 H        -0.7696717852       -7.1665760164       -8.6558841577
 H        -1.7016682675       -7.7623540001       -3.8331476847
 H        -3.1053685012       -6.7676668716       -4.3524858258
 H        -3.6946775986       -3.4558273011       -3.0143136336
 H        -4.1075211049       -3.5875309397       -1.3202922965
 H        -4.0627972596       -5.4865944558       -2.3334931238
 H        -3.5996107666       -5.9697524013       -0.7020937112
 H        -3.2652169288       -7.0665026226       -2.0493827954
 H        -1.3392936453       -6.0401725090        0.0611119159
 H        -0.6969730396       -6.8875468245       -1.3222519069
 H         0.0755313084       -5.4198518472       -0.8417043018
 H        -4.2507391288       -1.1496506670       -2.2531462394
 H        -2.8498201273       -1.2399509936       -1.0531438586
 H        -1.0444366572        0.7769641304        0.1351646679
 H        -0.1182173794       -0.7347876627        0.1437071641
 H        -0.0172863767        1.2012425964       -3.8440329971
 H        -1.6122218522        1.9039108881       -4.0739979811
 H        -1.1806893124        0.2193857336       -4.8532278602
 H        -2.4126193071        2.1889956420       -1.8605651324
 H        -3.6030160005        1.2346420835       -2.6734252139
 H        -3.1501010292        0.7340289423       -1.1444698971
 H         1.9032804287        0.4836460250       -0.3730991913
 H         1.1294423116        1.1972828025        1.0580566178
 H         3.6970287382        5.2651680024        0.4803735241
 H         2.0921068716        6.0082805789        0.7461998948
 H         3.4140019687        2.7215116627       -2.1918949921
 H         3.6686098981        1.9968892043       -0.4189902989
 H         4.0687184842        3.6600693021       -0.8028600437
 H         1.5888953513        4.1562255020       -2.4907158618
 H         0.4626759864        4.8085514401       -1.3140657075
 H         2.1128826628        5.4736951764       -1.4539055058
 H         3.6171599400        6.5516009472        2.4997210649
 H         2.2478810451        5.5769724773        3.1439378114
 H         1.7302589761        2.8048053401        4.3484660696
 H         2.9954995356        2.2897250318        5.4639868017
 H         6.2961165752        3.5531328231        4.5798676461
 H         4.9940219761        2.3108755291        4.8886442558
 H         5.7404982005        3.3175164533        6.1288574991
 H         4.3382284549        6.7464950122        4.8466618914
 H         5.0845269328        5.8913441228        6.2222563314
 H         5.9657314698        5.9333139200        4.8206663148
 H         0.7085109413        3.8916849270        6.7353699312
 H         1.8148869862        2.5858352868        7.3149178945
 H        -2.9971940799        2.7355447601        5.8887523546
 H        -3.9865585654        1.7133263718        6.6802312262
 H        -1.2055025425       -0.4687778484        5.2558286366
 H        -2.5733167551        0.7188519780        5.2161464579
 H        -2.4483925356       -0.3580196177        6.6139629681
 H         0.1967861834        0.6649069466        8.6316008032
 H        -1.2678214282       -0.4034957192        8.1946373590
 H         0.2104616717       -0.5397686268        7.3732772992
 H        -4.5063935569        3.2170890709        8.5870350572
 H        -3.2421164616        4.2749807002        8.1455722680
 H        -8.3111992625        7.2108672102        6.9497119902
 H        -7.7351693197        5.8370603063        5.9744989344
 H        -8.9147627070        5.4875500802        7.2577002934
 H        -4.5418985423        5.7960565994        9.4953646373
 H        -4.8006459323        7.4612084962        8.6816802357
 H        -3.4155587395        6.4882670544        8.2481025338
 H        -5.9429815781        7.8972761710        6.5371760741
 H        -4.2325955614        7.4553350053        6.4352932983
 H        -5.4451346173        6.7330487227        5.3032494899
 Na        0.4337768780       -2.6253825064       -3.4343646670
