155

 C         3.4160540792       -5.2696024128       -6.3069640280
 C         3.0064111699       -4.0000249770       -5.6514769020
 C         2.7624808782       -2.7596396639       -6.5750912692
 C         1.1600582477       -2.6082463642       -6.7123882785
 C         0.2866085421       -2.1941086457       -7.9233277968
 C         3.2023337966       -1.4320507422       -5.8485169880
 C         3.4934286111       -2.7692537737       -7.9041065803
 O         2.6413300894       -4.0118041530       -4.4679196879
 O         0.4300734664       -2.6320884204       -5.7558779347
 C        -1.0807759745       -2.8209067483       -7.9655314748
 C        -1.0038445409       -4.3231462701       -8.1977497336
 C        -2.2555295287       -5.3567584086       -7.9397958329
 C        -2.3037843824       -5.6004312900       -6.3920087107
 C        -1.3822476809       -6.6496143703       -5.7500340279
 O         0.0577275896       -4.7578446483       -8.5867159956
 O        -3.1637097900       -5.0696048217       -5.6765560795
 C        -3.6366590601       -4.7183016260       -8.4017031004
 C        -1.8910307137       -6.6364624349       -8.7568606028
 C        -1.7350849893       -7.0157371919       -4.2356780441
 C        -1.2316315092       -5.8431565942       -3.3052869478
 C        -1.9938827252       -5.4913815952       -1.9746101426
 C        -2.0438580073       -3.9076909104       -1.7098877629
 C        -3.3203119085       -3.1662586298       -1.7785620785
 C        -3.3156365344       -6.2334036432       -1.8961327167
 C        -1.0237382563       -6.0837777613       -1.0039852761
 O        -0.2363377476       -5.2075214121       -3.6474578531
 O        -0.9745600837       -3.4088459602       -1.5443464626
 C        -3.0953277549       -1.6204701498       -1.6181969077
 C        -2.1602678776       -1.0036325280       -2.7344812234
 C        -1.7203364011        0.5214745484       -2.5936692545
 C        -0.2619462610        0.1468387065       -2.0143865468
 C        -0.0350125956        0.1604600122       -0.4924340628
 O        -1.6444074126       -1.6417929358       -3.6151902480
 O         0.5300915330       -0.2829378189       -2.7606136275
 C        -1.6377397683        1.2182680496       -3.9513023815
 C        -2.7177841560        1.2913265679       -1.7362162911
 C         0.9009778164        1.1600826828        0.1053589469
 C         0.9188095594        2.4456259651       -0.6388828794
 C         2.0044264894        3.5050168995       -0.5344069148
 C         2.0469274824        3.9272818856        1.0434285409
 C         2.6958924376        5.2921898906        1.2984621334
 C         3.3388280537        2.9754763188       -1.0714655878
 C         1.5457337933        4.7439245356       -1.3505717588
 O         0.0062334545        2.5793744129       -1.4695924513
 O         1.5190342927        3.3614805582        1.9910587887
 C         2.9509353375        5.4488326288        2.8087880829
 C         4.1604064874        4.5466136071        3.3745086611
 C         4.1230990449        4.4645034380        5.0032936799
 C         2.7349560360        4.3249330222        5.6225494866
 C         1.9686856299        2.9783347574        5.6114031925
 O         4.9649810547        4.0908469501        2.6440170325
 O         2.1668139354        5.3439110947        6.0616349654
 C         5.0813109445        3.3096827279        5.4522262294
 C         4.8631465665        5.7378894838        5.4418300419
 C         0.6832778071        2.7879922151        6.3255376543
 C        -0.1716542776        1.7099785636        5.5645066830
 C        -1.1197363297        1.0415724573        6.4638351544
 C        -2.0004571669        2.1755030708        7.3099072394
 C        -3.4946681713        2.3728913789        7.0863108739
 C        -2.0805034082        0.0403481852        5.8413179242
 C        -0.4559721953        0.2565412892        7.6691160136
 O        -0.0744675987        1.5247504242        4.3792696027
 O        -1.4040538814        2.9157781558        8.0605460039
 C        -3.9841530671        3.8057528099        7.7071738838
 C        -5.0819210868        4.4655358714        6.8223611382
 C        -5.5075419579        5.9188685051        7.1549600226
 C        -6.9113671520        5.7282692804        7.7761433865
 C        -8.2089762231        5.9966230713        6.9944237235
 O        -5.5731337470        3.8641353131        5.8587125695
 O        -6.9584271162        5.1779007386        8.8670284769
 C        -4.5066805409        6.7310917803        8.1036780913
 C        -5.5519494147        6.7928769276        5.8306670343
 H         3.8414974714       -5.9618071569       -5.5040561003
 H         2.6350404519       -5.7100881610       -6.9563593124
 H         4.1242252859       -5.0546184146       -7.0944451882
 H         0.3044406120       -1.0927581600       -7.8608297831
 H         0.7806195129       -2.4661105787       -8.8714387837
 H         4.2579388269       -1.3860587794       -5.9669676990
 H         2.8669589757       -1.3913764371       -4.8099905720
 H         2.9651504516       -0.5856679616       -6.4226072398
 H         3.2289325718       -3.7115318727       -8.4248646403
 H         3.3468393730       -1.8696104611       -8.4484910459
 H         4.5359290731       -2.7173444947       -7.8444965808
 H        -1.8713102971       -2.6563227001       -7.2420050947
 H        -1.6062956043       -2.3759670069       -8.8335467896
 H        -1.3848183075       -7.4529132093       -6.4256920676
 H        -0.3296613580       -6.4196040629       -5.6665711530
 H        -3.8419358178       -3.6069206105       -8.2473844890
 H        -4.5058438196       -5.0787961967       -7.9665672052
 H        -3.7240669517       -4.9529541474       -9.4308410296
 H        -2.7666123574       -7.3509793796       -8.8097001472
 H        -1.7068753819       -6.3270818392       -9.7708292966
 H        -1.0848240581       -7.3149445377       -8.3653231847
 H        -1.4112327365       -8.0040247342       -3.8293986612
 H        -2.8327325602       -6.8840816820       -4.2293247125
 H        -3.8596246675       -3.5338562809       -2.6561643066
 H        -3.8941893311       -3.5036436462       -0.9561239152
 H        -3.9724725486       -5.8936484200       -2.6249109989
 H        -3.7671981715       -5.9334680635       -1.0534925656
 H        -3.1595273463       -7.3341220517       -1.9788788375
 H        -1.3592904202       -5.8230847098        0.0261535936
 H        -1.0144897596       -7.1572012195       -1.1139205205
 H        -0.0065253950       -5.7651740604       -1.1737973706
 H        -4.0902089828       -1.1063281085       -1.6974077799
 H        -2.5867318383       -1.4582434967       -0.6799764700
 H        -1.0211184672        0.3063857485        0.0379142625
 H         0.3726010054       -0.8149670019       -0.2055248982
 H        -1.6466008745        2.3037706281       -3.5549351279
 H        -2.4560017258        1.0389150567       -4.7040477244
 H        -0.6644036414        0.9959085983       -4.5174594766
 H        -2.5404521295        2.2982215667       -1.6641788096
 H        -3.8237777504        1.2100455950       -2.0554566755
 H        -2.5923922097        0.9522985506       -0.7072091411
 H         1.8664363767        0.6735648061        0.1686236527
 H         0.6489454949        1.2187917380        1.2011633096
 H         3.6360131871        5.3618302290        0.7959780739
 H         1.9901270377        5.9963111138        1.0046961933
 H         3.1954038990        2.6567292290       -2.1012672176
 H         3.7559407500        2.3945628511       -0.3299517212
 H         4.0409208990        3.7835311441       -1.0030000071
 H         1.0961917489        4.3805271214       -2.2835750950
 H         0.7255319172        5.3212718767       -0.8395890271
 H         2.2626472094        5.3955588268       -1.6725506551
 H         3.2614712774        6.4603662753        3.0150456614
 H         2.1127556960        5.0363727921        3.3863960964
 H         1.8469687864        2.7062345153        4.5240281949
 H         2.7346120103        2.2144047244        5.9735626650
 H         6.1497075515        3.4972354537        5.2584053779
 H         4.8292514938        2.3848480495        4.9480482181
 H         4.8342646224        3.0285543009        6.5032627738
 H         4.1869421849        6.6000124881        5.5291984546
 H         5.2701808358        5.7586645262        6.5094455663
 H         5.7069227267        5.8617045039        4.7654055302
 H         0.0348098215        3.6344335146        6.2401936194
 H         0.8123996775        2.4481509218        7.3819252163
 H        -3.9383691633        2.4372130379        6.0764378405
 H        -3.8989924983        1.3257649139        7.3596685620
 H        -1.5278854924       -0.8526505855        5.4181009571
 H        -2.7258763389        0.5035230473        5.0797486646
 H        -2.6454886388       -0.3259223673        6.7385999765
 H        -0.1351761928        0.8720613713        8.4846263969
 H        -1.2460738201       -0.3598779647        7.9732285212
 H         0.3724518984       -0.2939269411        7.3313951664
 H        -4.1996742624        3.7296008900        8.8213965757
 H        -3.0589706239        4.3241032500        7.5333157540
 H        -8.1963130246        6.8979190261        6.2800437622
 H        -8.3865912435        5.1202355941        6.3734131176
 H        -9.0809666220        6.2571385032        7.5763316863
 H        -4.1378580783        6.1637192860        8.9256968693
 H        -5.0101607694        7.5921497057        8.6604878788
 H        -3.8348683418        7.2036299772        7.4403723035
 H        -5.7425303605        7.8618157446        6.0202458996
 H        -4.5881054951        6.7847146626        5.3333942323
 H        -6.2571991536        6.3416431452        5.2142053143
 Na        0.5886718256       -2.7399598349       -3.5013624872
