155

 C         3.3779059134       -5.2078098700       -6.1533115755
 C         2.8330925623       -3.9604040382       -5.5891501507
 C         2.5678156164       -2.7041269978       -6.4803146002
 C         1.0400603793       -2.4874462468       -6.6467738957
 C         0.4091305192       -2.2335417834       -8.0244184827
 C         3.1100018499       -1.3511929632       -5.9096234440
 C         3.3914595874       -2.8971063353       -7.7445500098
 O         2.6144310000       -3.9050001059       -4.4019789280
 O         0.3647351470       -2.5347455032       -5.6803915878
 C        -0.9711137527       -2.8458687876       -8.1668392619
 C        -0.9530766681       -4.4482690132       -8.2766623517
 C        -2.3030090414       -5.1132059170       -7.9476062546
 C        -2.1911725323       -5.4647984658       -6.3924107530
 C        -1.1520308949       -6.4384048023       -5.9090267551
 O         0.0382179282       -5.0474566890       -8.5368835920
 O        -2.7539197157       -4.7127749114       -5.5667144401
 C        -3.4993149435       -4.2647420202       -8.2243021099
 C        -2.4944397674       -6.4956079674       -8.6930165757
 C        -1.2762810664       -6.8906342756       -4.3893583689
 C        -1.1001771970       -5.7066563708       -3.4991295353
 C        -1.7861062108       -5.6819677462       -2.0516338864
 C        -1.8420244710       -4.1324352552       -1.6374995195
 C        -3.2055245347       -3.5096578685       -1.8894112752
 C        -3.1314393522       -6.3868677795       -2.1805635786
 C        -0.9165165238       -6.3373488483       -0.9150895915
 O        -0.2568085556       -4.8542066606       -3.8318790419
 O        -0.9011415285       -3.5199626234       -1.2379932483
 C        -3.2017113288       -1.9785889267       -1.6579851935
 C        -2.2051214069       -1.3260220321       -2.6078122860
 C        -1.6761750820        0.2196870374       -2.4589730767
 C        -0.1000042513        0.0657890209       -1.9649924297
 C         0.1689353400        0.2393995709       -0.4203283016
 O        -1.7499655353       -2.0446738627       -3.4824585576
 O         0.7041655942       -0.2614488636       -2.7575973029
 C        -1.7727522247        0.8247976654       -3.8336946733
 C        -2.4777414475        1.0716274540       -1.3917385877
 C         1.0597531332        1.4089427159        0.0250300428
 C         1.0079481096        2.6639852279       -0.7694543445
 C         2.0325505068        3.7902125140       -0.3297444912
 C         1.8769481616        4.1832324608        1.1118080360
 C         2.7149770307        5.4390784835        1.6183774423
 C         3.5104959271        3.2325874743       -0.6824922167
 C         1.7906477398        4.9919925431       -1.2487167498
 O         0.3541623939        2.8949763814       -1.7797400240
 O         1.2314932069        3.5452359089        1.9701982959
 C         2.9287192725        5.5375655511        3.2074537237
 C         4.0212282214        4.6038676208        3.6954838169
 C         4.1724261238        4.4793882670        5.2645391325
 C         2.6081666913        4.1153738729        5.7158450582
 C         1.9592751161        2.7985807937        5.1569880474
 O         4.8904788574        4.1623095496        3.0135181438
 O         1.9836173994        5.0713849899        6.1764581453
 C         5.2424506569        3.4130147765        5.5619574154
 C         4.5420788452        5.7362600961        6.1018513749
 C         0.5427554978        2.8286799389        5.5643684143
 C        -0.2967142875        1.5859931337        5.2327442620
 C        -1.2594316255        1.1563525948        6.3654623855
 C        -2.0198687255        2.3416450337        7.2234594238
 C        -3.4749044556        2.4773895211        7.1218205952
 C        -2.4581215517        0.0943869678        5.9195847391
 C        -0.5143019552        0.4430996097        7.4572379941
 O        -0.2465232969        1.0062160271        4.1675619671
 O        -1.3377258109        3.2038590764        7.8029440914
 C        -4.1203239080        3.8917121987        7.6345122884
 C        -4.9627012197        4.3837998010        6.4616311057
 C        -5.6492600485        5.8400282172        6.7911386614
 C        -7.0714024144        5.4696239935        7.6951845447
 C        -8.4408922381        5.7325308603        7.1616784578
 O        -5.3559472016        3.7481836683        5.5222255918
 O        -6.8192200715        5.1622951811        8.8359042699
 C        -4.7068053111        6.7160210255        7.6336079327
 C        -5.9061387392        6.4241519712        5.3490107182
 H         3.4013736250       -6.0031057122       -5.3280486204
 H         2.8995919964       -5.6135087511       -7.0184849799
 H         4.4681451161       -4.9263594586       -6.4235916388
 H         0.3934635369       -1.2135894658       -8.3944982805
 H         1.1869282029       -2.7612025772       -8.6299138167
 H         4.2050748269       -1.5339288523       -5.5969139135
 H         2.5779616424       -1.1295396273       -4.9661140974
 H         2.8897098494       -0.5779688026       -6.6819689338
 H         3.1449369045       -3.8433244766       -8.3338954282
 H         3.1586165820       -2.0512987734       -8.4716834611
 H         4.4584123486       -2.9454674533       -7.4751020613
 H        -1.6675486363       -2.5209436944       -7.4356636289
 H        -1.4570584023       -2.4601612985       -9.0427893568
 H        -1.0435542768       -7.3786544496       -6.3480910819
 H        -0.2627356693       -5.9245772285       -6.1030236871
 H        -3.3101019913       -3.1979063836       -8.5451211255
 H        -4.1293596287       -4.1448963122       -7.3568462497
 H        -4.1865320070       -4.5478752150       -9.0308450634
 H        -3.1576039501       -7.1769604052       -8.1431605486
 H        -2.9709049830       -6.4012102320       -9.6472354453
 H        -1.5633935123       -7.0485854424       -8.7880187339
 H        -0.4675578192       -7.6921575954       -4.2250600807
 H        -2.2275077988       -7.4653178918       -4.2765237442
 H        -3.5151641577       -3.7850711063       -2.9108429054
 H        -3.8830858041       -3.9575615650       -1.1625990907
 H        -3.4441513223       -5.9733629073       -3.1155425591
 H        -3.8216732468       -6.1631720855       -1.4433625205
 H        -3.0581425707       -7.4557900492       -2.2605949470
 H        -1.4311387792       -6.3463898121        0.0697405487
 H        -0.7157058818       -7.4202247662       -1.1322485438
 H         0.0412369132       -5.8022507472       -0.8102931413
 H        -4.1832671450       -1.4537539321       -1.8870517023
 H        -2.9627317554       -1.6975452592       -0.6422218699
 H        -0.7576195957        0.2590107487        0.1922977618
 H         0.6137996812       -0.7789605454       -0.0880836406
 H        -2.0584514495        1.9051062949       -3.7063140037
 H        -2.5913450567        0.3490529936       -4.3507891474
 H        -0.9214180883        0.8208351926       -4.4567428013
 H        -2.2099182602        1.9745982333       -0.9107967404
 H        -3.5440850089        1.2654289238       -1.8197488339
 H        -2.6909711489        0.3966212487       -0.5640169141
 H         2.0986250079        1.1091852787        0.2331155938
 H         0.8287379109        1.6288797678        1.1147924125
 H         3.6234402298        5.4242112257        0.9907857482
 H         2.2069295843        6.3652502497        1.4835381946
 H         3.5442444552        2.7799194456       -1.6700394099
 H         3.8805246308        2.5922777904        0.1169789246
 H         4.1103030585        4.1710765269       -0.6393345808
 H         1.9893416434        4.7335801912       -2.3120795439
 H         0.7109041844        5.3041550421       -1.3417985937
 H         2.3282064304        5.8424308365       -1.0359636383
 H         3.2599395933        6.5632910440        3.4199588376
 H         1.9649120024        5.2558544556        3.7209574662
 H         2.0713974748        2.7951024292        4.0674289982
 H         2.4732575556        1.9249370733        5.5850047756
 H         6.1741848414        3.8636152479        5.2225449375
 H         5.2251451878        2.4981173176        5.0244755047
 H         5.2227691780        3.2572156424        6.6441901002
 H         4.1670085292        6.6961642951        5.8814934340
 H         4.2233185021        5.5318555429        7.2341609175
 H         5.6020598851        5.7626940405        6.0210735370
 H         0.1038440702        3.5816618616        4.9650806318
 H         0.4248752566        3.0343701806        6.6230910938
 H        -3.9713505339        2.0405524644        6.2053117833
 H        -3.8666657876        1.7654853851        7.9657783497
 H        -2.0661862012       -0.8489160975        5.6446227013
 H        -3.0339367942        0.5197232945        5.0745902400
 H        -3.1550899101       -0.0280903316        6.7356515976
 H         0.2279158815        1.1772260762        7.8396220452
 H        -1.1607590071        0.4755602413        8.3362365375
 H        -0.0733226900       -0.5202240805        7.1531443849
 H        -4.6640248580        3.5079383842        8.5396772639
 H        -3.3051339061        4.5138885122        7.8342068348
 H        -8.6070246159        6.7804545251        6.8758475370
 H        -8.6535874385        5.1003232590        6.2806834313
 H        -9.1100704021        5.5665421981        7.9178894445
 H        -4.8867159101        6.6687734092        8.7324183655
 H        -4.8765945432        7.8042473591        7.3963745719
 H        -3.7184678725        6.4268341725        7.3872483617
 H        -6.3990486459        7.4103314932        5.5088232904
 H        -5.0195113421        6.4507114554        4.7104112426
 H        -6.6128519626        5.7776081652        4.8796964254
 Na        0.6873846156       -2.6966988699       -3.2516483173
