155

 C         3.3621603188       -5.0630977865       -5.6645179746
 C         2.7753163532       -3.7245675582       -5.3072544981
 C         2.6392322793       -2.6084458471       -6.3487089032
 C         0.9932575781       -2.3429717942       -6.8127841852
 C         0.6468833284       -2.5110645686       -8.3181769802
 C         3.0390307302       -1.3296392260       -5.5547804079
 C         3.6012617742       -2.8082470601       -7.4955739829
 O         2.3612734831       -3.5888122415       -4.1757682261
 O         0.0910144995       -2.1564295769       -6.0327462635
 C        -0.8550192529       -2.7523061760       -8.4403514538
 C        -1.0744506125       -4.3359186586       -8.2472503716
 C        -2.3735630298       -4.9773663910       -7.8296001407
 C        -2.1060948555       -5.4346393843       -6.2674289396
 C        -0.9931768589       -6.4811936664       -5.9933025629
 O        -0.1625854539       -5.0354158426       -8.4765675435
 O        -2.6830470406       -4.8923439082       -5.3328615522
 C        -3.5668786518       -4.0611196478       -7.8671867951
 C        -2.6872753966       -6.2012584268       -8.6673214781
 C        -1.0704522700       -6.8884497312       -4.5613981153
 C        -0.9425134885       -5.7065612998       -3.6298972871
 C        -1.5805689943       -5.7399645019       -2.1854561263
 C        -1.7703388751       -4.2418188579       -1.6710620290
 C        -3.1595175229       -3.6189460252       -1.8020044248
 C        -2.9804545147       -6.5344985138       -2.1875715730
 C        -0.4093485322       -6.4368382450       -1.4090103975
 O        -0.1258752308       -4.8011193506       -3.8437262989
 O        -0.8547791713       -3.6778361566       -1.1527350135
 C        -3.0431377141       -2.0540127811       -1.5355118142
 C        -2.1178950564       -1.4167043040       -2.4598247786
 C        -1.3962261756       -0.0098180228       -2.2024586616
 C         0.0202938393       -0.0165472766       -1.4952163760
 C         0.1931982341        0.5680719298       -0.0699277274
 O        -1.8574106818       -2.0459346986       -3.5157769371
 O         0.9281781004       -0.5143239260       -2.1214881787
 C        -1.1553995480        0.6704484425       -3.6308559650
 C        -2.4372096709        0.8711818356       -1.4410657807
 C         1.6043702835        1.2798165761       -0.1113782927
 C         1.3528941044        2.7226754192       -0.6449611371
 C         2.2240142249        3.9430086020       -0.3044136218
 C         1.9366525252        4.4499265058        1.1778739893
 C         2.8730983544        5.6713643890        1.5647242377
 C         3.7213674592        3.5789010537       -0.3430048188
 C         1.8557753985        5.0132847362       -1.3279512480
 O         0.5119321395        2.8727936010       -1.4775324049
 O         1.2608355267        3.8959036246        1.9964951814
 C         2.9760114071        5.7790153015        3.0718018841
 C         3.8955098166        4.6894263658        3.6662582221
 C         3.7784455646        4.3441950180        5.2301646537
 C         2.3970449473        3.9702215098        5.8614059784
 C         1.7030584892        2.8251900225        5.1568248396
 O         4.7540771704        4.1610371219        2.9583291606
 O         1.9103185817        4.4277271003        6.8612955216
 C         4.9009717950        3.3014560347        5.4686055732
 C         4.2471405864        5.6753433885        5.8182970295
 C         0.1729907760        2.9683272103        5.2165361708
 C        -0.5309934309        1.5872644207        5.1583946771
 C        -1.4329772386        1.0612724228        6.3600374998
 C        -2.2341558611        2.2929070436        6.9672618166
 C        -3.7026655551        2.3527366796        7.0198568900
 C        -2.3623134220       -0.0543631469        5.9712571299
 C        -0.4207525856        0.4851350155        7.5096630365
 O        -0.2781182378        0.7598712094        4.3026190725
 O        -1.6340178088        3.2713298749        7.4219670203
 C        -4.4270242464        3.7522653737        7.4477024673
 C        -5.0406738774        4.3593599579        6.1739592290
 C        -5.8295356684        5.7556287045        6.4674190497
 C        -6.9668197907        5.3992792761        7.5837154558
 C        -8.4477004528        5.3069391676        7.2379938131
 O        -5.0788078745        3.8863823269        5.0880731582
 O        -6.5568656040        5.1677706704        8.6930659706
 C        -4.9714396056        6.8460243805        7.1743985914
 C        -6.4393267564        6.1870466851        5.0986669271
 H         3.2554066382       -5.8300674323       -4.9250318271
 H         2.9586557034       -5.4911163849       -6.5339060098
 H         4.4875351103       -4.8386415167       -5.7370088961
 H         1.0470325339       -1.6710349625       -8.8525793620
 H         1.2070511250       -3.4061495630       -8.7492737602
 H         4.0633485782       -1.6065022157       -5.1218804243
 H         2.3715511754       -1.2109234400       -4.6958380114
 H         2.9412008868       -0.4276814674       -6.2299530676
 H         3.4365462581       -3.7346775645       -8.0223235594
 H         3.3256237508       -1.9991326821       -8.2242083081
 H         4.5972666063       -2.7481782611       -7.0614109811
 H        -1.4175293933       -2.3167559384       -7.6311099726
 H        -1.3260840611       -2.3797005242       -9.3340079860
 H        -1.0533868817       -7.2957484973       -6.6685011546
 H        -0.0574792276       -6.0412781083       -5.9844233901
 H        -3.8162362381       -3.7898334040       -8.8810288987
 H        -3.5504830382       -3.2157956284       -7.1618069937
 H        -4.4958842579       -4.5935131824       -7.4487407612
 H        -3.3521965215       -6.8852301592       -8.1858766025
 H        -3.0628880548       -6.0017330616       -9.6529775104
 H        -1.7755383307       -6.6740051556       -8.8780944987
 H        -0.2010317810       -7.5241436693       -4.1820317670
 H        -1.9674671336       -7.4432420900       -4.2780045997
 H        -3.4540553162       -3.6986211232       -2.8635491619
 H        -3.9103814208       -4.1389128844       -1.1487951630
 H        -3.7377061209       -6.2029325880       -2.9577663039
 H        -3.3115698882       -6.4932601048       -1.1340684579
 H        -2.8029711973       -7.5649957611       -2.2665616522
 H        -0.6607177176       -6.8196811247       -0.4507033726
 H        -0.0098876188       -7.3067376091       -1.9683595169
 H         0.3918425005       -5.7405581796       -1.2152744647
 H        -4.0660389001       -1.5658110070       -1.5767418239
 H        -2.7814203314       -1.8127124439       -0.4962419248
 H        -0.6158818555        1.2529718475        0.1936924338
 H         0.1491188106       -0.3877186993        0.6272628540
 H        -0.3958436771        1.3589776984       -3.4655298154
 H        -2.0165393670        1.2377073699       -3.8336581640
 H        -0.8107588771        0.1724816854       -4.4499092736
 H        -2.0460866929        1.9093214471       -1.1177140542
 H        -3.4345166426        1.0084870765       -1.8781404957
 H        -2.7010485168        0.4144055379       -0.5076381056
 H         2.2433554106        0.6390423203       -0.7436525286
 H         2.1782286990        1.2564933879        0.8354241369
 H         3.8709515175        5.8202642683        1.0337395030
 H         2.2478272532        6.4654767858        1.0934595641
 H         3.9111794032        2.8073530080       -1.0418253561
 H         3.9690360296        3.0581005914        0.5814334777
 H         4.2381113154        4.5102521373       -0.6722405905
 H         1.8653192745        4.5201815510       -2.3406832832
 H         0.8212380401        5.3700571388       -1.2447641714
 H         2.4246273356        5.9282518296       -1.4611541324
 H         3.4566386499        6.6949272478        3.4697974006
 H         1.9572526044        5.6636609826        3.5624249676
 H         2.0026637080        2.7045089224        4.1409691330
 H         1.8931306599        1.9568970817        5.7630546577
 H         5.8951971666        3.6280072381        5.0979857296
 H         4.5719825173        2.4733165821        4.8678794548
 H         5.0388341599        3.1330461361        6.5260104394
 H         3.4281186386        6.3007994538        5.6419098447
 H         4.5449874519        5.6122645928        6.8917558068
 H         4.9701493769        6.1567792970        5.2084357720
 H        -0.1517212782        3.4483186104        4.3240535754
 H        -0.2651894025        3.4396680094        6.0419634763
 H        -4.2530221037        2.0526503535        6.1321607779
 H        -3.8594303530        1.6172453526        7.8710215908
 H        -1.8950877871       -0.8554942437        5.5712392877
 H        -3.0731155659        0.3420196179        5.2107197700
 H        -2.9286343459       -0.3499614563        6.8307580756
 H        -0.0067969229        1.2284336173        8.2722824646
 H        -1.1368555937       -0.1991641112        8.0510498436
 H         0.2918907781       -0.2855015432        7.1654445607
 H        -5.2652842601        3.6079453541        8.1649860003
 H        -3.6382086306        4.3845243793        7.7425168802
 H        -8.8151365734        6.1488385310        6.7294647003
 H        -8.6064939543        4.4991896950        6.5019315204
 H        -9.0381358000        5.0758950290        8.0825780369
 H        -4.3299474543        6.4503571731        7.9538833581
 H        -5.5311881561        7.7673285142        7.3113257448
 H        -4.1859423115        7.0086520533        6.4909266412
 H        -7.4237645084        6.6885854987        5.2542068394
 H        -5.6919139737        6.7499708132        4.5458482181
 H        -6.6436604506        5.2614615015        4.5575325315
 Na        0.4014581391       -2.5085433130       -3.6308852016
