155

 C         4.7362334592       -3.8329387137       -5.4522410344
 C         3.4468948808       -3.0646293822       -5.1310603772
 C         2.9078569010       -1.8860694380       -6.0627143066
 C         1.3684325611       -2.1684478869       -6.3911719027
 C         0.9212892656       -2.3494199386       -7.8399136432
 C         2.9892274215       -0.6613410486       -5.2040734295
 C         3.7247129240       -1.7440791490       -7.3361860431
 O         2.8948969677       -3.3999162656       -4.0904666536
 O         0.5279983359       -1.9094018974       -5.5789225400
 C        -0.6668343175       -2.4756094634       -7.9543468432
 C        -0.9134300948       -3.9496962835       -7.8229575717
 C        -2.4251566667       -4.4578470356       -7.6469424265
 C        -2.3623077865       -5.2091399454       -6.2552162499
 C        -1.3077546063       -6.3139484402       -5.9225513277
 O        -0.0787601701       -4.7975425454       -7.8104089808
 O        -3.1683433707       -4.9372980150       -5.4076724248
 C        -3.6938898077       -3.4701990983       -7.6859034492
 C        -2.6450913784       -5.5237760062       -8.7299284359
 C        -1.4366114299       -6.7774954469       -4.4601670026
 C        -0.9490644895       -5.7227143542       -3.5195025502
 C        -1.1842413082       -5.8510841738       -1.9733066097
 C        -1.1051730889       -4.2708318315       -1.3488667429
 C        -2.4121825428       -3.6187807682       -1.1214999189
 C        -2.5520699605       -6.5014611519       -1.5061122385
 C        -0.0287852905       -6.6773097352       -1.4439112418
 O        -0.2265526660       -4.8064622748       -3.9132141631
 O        -0.0174740886       -3.7726537086       -1.1408072570
 C        -2.2767885469       -2.0652677325       -0.5846421744
 C        -1.6044302627       -1.3861304357       -1.7583295090
 C        -1.1934858591        0.1714666640       -1.7494233656
 C         0.4039852352        0.0957512060       -1.3974354979
 C         0.9119333348        0.1993766903        0.0588212822
 O        -1.3277924986       -1.9425101288       -2.8012375609
 O         1.1991792467       -0.1888244616       -2.3041550990
 C        -1.4494999357        0.7365242806       -3.1207524346
 C        -1.9190322104        0.9353123471       -0.5905776584
 C         1.8142690894        1.4624631926        0.3302756054
 C         1.5840868164        2.5709520394       -0.6285702271
 C         2.4520475293        3.8891439949       -0.2610532848
 C         2.0012635264        4.5107992915        1.2225751984
 C         2.9011028731        5.6508517714        1.6903169620
 C         4.0187031339        3.7246761554       -0.4433256602
 C         1.9658981735        4.9861647722       -1.1889525982
 O         0.8423959556        2.5585517885       -1.5641775045
 O         0.9252588182        4.3444656135        1.7655940632
 C         3.1759225746        5.5753487404        3.1956928465
 C         3.5466178760        4.1937636435        3.6350432492
 C         3.6308257315        3.9148370309        5.2295747059
 C         2.0842449028        3.7741561657        5.4700972490
 C         1.2862420954        2.5498839536        4.9557608015
 O         3.5204834740        3.2463220689        2.8680638110
 O         1.5189108835        4.6527752876        6.1159995079
 C         4.3739440668        2.6173964724        5.5956267338
 C         4.1366431050        5.2094132284        5.9339267878
 C        -0.2312508770        2.8362192430        4.8949549820
 C        -1.0169290750        1.5644963807        4.9637539189
 C        -1.5679816620        1.2378053913        6.3799900185
 C        -2.9116649688        2.1049676485        6.6007201222
 C        -3.9147334253        2.0906690342        5.4404634248
 C        -1.9569095077       -0.2614904339        6.4350894214
 C        -0.6608556914        1.3952971561        7.5436392091
 O        -1.3685927719        0.9550881803        3.9763952709
 O        -2.9157919215        2.8086174953        7.5487800077
 C        -5.1990014172        2.7885717019        6.0437755418
 C        -5.6954570191        3.8213124039        4.9377175982
 C        -6.3688288004        5.1159886365        5.5617534205
 C        -7.1348358457        4.8006739032        6.9481657537
 C        -8.4942207113        4.0332606555        6.8251951666
 O        -5.5276674187        3.5285663375        3.7657585562
 O        -6.7213020399        5.2138241158        8.0188523411
 C        -5.3508602742        6.2241054831        5.8026526834
 C        -7.4279272780        5.7118149847        4.5686478372
 H         5.1883730631       -4.0290261338       -4.5480994008
 H         4.4549166062       -4.6891712491       -6.0085023768
 H         5.4492471753       -3.3731884537       -6.1444259482
 H         1.2104017756       -1.4050081264       -8.4503436494
 H         1.4386088055       -3.1581964830       -8.3079269553
 H         3.9740425068       -0.3363128352       -5.0938774348
 H         2.6593883943       -0.8190841953       -4.2282940419
 H         2.3722403937        0.0924778388       -5.5907917233
 H         3.6390920582       -2.5370634815       -8.0164479332
 H         3.2492158091       -0.9844964109       -7.9174608207
 H         4.7320723707       -1.5215352335       -7.1802412640
 H        -0.9941319069       -2.0021710803       -7.1005034031
 H        -1.0736100364       -2.0080867882       -8.8634593260
 H        -1.3357668791       -7.1199604432       -6.5804172112
 H        -0.3818857164       -5.8927969407       -6.1933483781
 H        -3.8317528210       -3.1782469711       -8.6854224912
 H        -3.5298838116       -2.7300291800       -6.8770515944
 H        -4.6010821680       -4.0479395721       -7.3821654516
 H        -3.4189042566       -6.2211652982       -8.2986464109
 H        -3.0458693160       -5.0565371381       -9.6479836880
 H        -1.6702209917       -6.0219877771       -8.9193603638
 H        -0.8811439968       -7.7192798614       -4.3607818756
 H        -2.5126565475       -6.9264848902       -4.1849112766
 H        -2.9942641294       -3.4894347591       -2.1111137536
 H        -2.9780136516       -4.3212290109       -0.5012178391
 H        -3.4992226906       -6.1122941947       -2.0065076187
 H        -2.6302658425       -6.3488158153       -0.3641565257
 H        -2.5595195563       -7.5800756179       -1.5894057129
 H         0.1348912529       -6.5882663701       -0.3626586997
 H        -0.2110052647       -7.7492403790       -1.5708684294
 H         0.9533347018       -6.5073899427       -1.8628081993
 H        -3.3065870255       -1.6836235569       -0.3691685970
 H        -1.6077280561       -2.0766024864        0.2601577114
 H         0.1546533860        0.0800376452        0.8082562519
 H         1.5057359770       -0.7854171974        0.2729417831
 H        -1.1296793174        1.7346880555       -3.2139667448
 H        -2.5684772020        0.7794215612       -3.3189356572
 H        -0.9932277355        0.2223290669       -3.9835650854
 H        -1.4982307008        1.9783246034       -0.3077728509
 H        -2.9626073201        0.9962291582       -0.9153936853
 H        -1.9861605065        0.3512251718        0.2826904390
 H         2.8598905201        1.2098132367        0.1760117041
 H         1.7162089639        1.7684263261        1.4065338114
 H         3.8916546568        5.7416260097        1.1700353564
 H         2.2533110901        6.5574113660        1.6446394959
 H         4.5692106930        4.5220704097        0.0598462989
 H         4.3162512580        3.7248202923       -1.4737216670
 H         4.4027274433        2.7886752134        0.0276364415
 H         2.2421447505        4.7748776740       -2.2251244738
 H         0.8856744614        5.0543416684       -1.2560996373
 H         2.4777770572        5.9227760980       -0.9343661651
 H         3.9987857306        6.3184943524        3.4270494965
 H         2.3355908412        5.9329693824        3.8015094163
 H         1.7423878416        2.2662887840        4.0087862998
 H         1.5065368200        1.6521265945        5.5564953913
 H         5.3828283960        2.5572336196        5.0940966575
 H         3.8152244334        1.7911920593        5.1290250495
 H         4.3555056720        2.6972087301        6.6994734675
 H         3.2355024255        5.8157764344        6.1755736934
 H         4.5413919628        4.8906428360        6.8187486198
 H         4.9175417849        5.7349136310        5.2941639112
 H        -0.5075856783        3.2718006269        3.9499027286
 H        -0.4638052571        3.5659436152        5.6799290944
 H        -3.3925481357        2.5590937897        4.5988814563
 H        -3.9795521053        1.1056309537        5.0442826541
 H        -1.2429969505       -1.0377501595        6.4863670048
 H        -2.6018396853       -0.5239666785        5.5244961558
 H        -2.7343562148       -0.4366056130        7.2273644523
 H        -0.5024171056        2.4199030396        7.8523973481
 H        -1.1115672388        0.9281994657        8.3797836760
 H         0.2736137082        0.9717898768        7.4056148036
 H        -5.9608383087        2.1845457573        6.4825819952
 H        -4.8065034039        3.3888152527        6.8912335804
 H        -9.3297761701        4.5849616664        6.5791857876
 H        -8.3244455904        3.2304560093        6.0745661499
 H        -8.7962266026        3.5423166887        7.7861520384
 H        -4.3618580736        5.9316493215        6.2175192462
 H        -5.7008108472        6.8327153131        6.6984776330
 H        -5.2009050931        6.7663656090        4.9037216436
 H        -8.0537685610        6.4110251060        5.1692001695
 H        -7.0899377783        6.2051992053        3.6606186185
 H        -8.1283149373        4.9729231713        4.2804257579
 Na        0.8778732910       -2.4422367739       -3.2395247556
