155

 C         4.8575577842       -3.3699154316       -5.6242533455
 C         3.4693246877       -2.8901731520       -5.2843092644
 C         2.9234857112       -1.6565969583       -6.0428088109
 C         1.3712028434       -1.8056682208       -6.2127670758
 C         0.8800379158       -1.7524025724       -7.5996166435
 C         3.1398712366       -0.3363233581       -5.1474582642
 C         3.6866510586       -1.3807576553       -7.3736235695
 O         2.8819925292       -3.4269259278       -4.3678612249
 O         0.6827055415       -1.9674663032       -5.2277286003
 C        -0.5684394222       -2.3068749675       -7.5517932763
 C        -0.7177083059       -3.7892208074       -7.8476342321
 C        -2.1500290693       -4.4205563027       -7.6416236441
 C        -2.3084849787       -4.8513957141       -6.0878732660
 C        -1.6302688771       -6.0866349626       -5.6307594097
 O         0.1273847352       -4.5635303091       -8.2034480530
 O        -3.1653880136       -4.2940865059       -5.4352807414
 C        -3.2617479909       -3.4303818660       -8.0754665151
 C        -2.3339013012       -5.7806360051       -8.4622378745
 C        -1.7807583182       -6.4759924649       -4.1498130372
 C        -0.9312863373       -5.5813020490       -3.2439530105
 C        -1.0266573034       -5.7063861504       -1.7076860199
 C        -1.0365032803       -4.2158757210       -1.0127663738
 C        -2.3198394947       -3.5363636541       -0.5632212274
 C        -2.2209870904       -6.5631279687       -1.2636968177
 C         0.2269686638       -6.4294583567       -1.1582809026
 O        -0.1645540474       -4.8173741638       -3.7484896842
 O         0.0479174244       -3.7469150974       -0.8312334197
 C        -2.1922390619       -1.9941495990       -0.4076906422
 C        -1.6574085404       -1.3694617888       -1.7251963771
 C        -1.1530829380        0.0113896397       -1.5855551139
 C         0.4718954514        0.0094696040       -1.2783982114
 C         1.0809539068        0.3255516842        0.0890082812
 O        -1.4510600292       -1.9987424199       -2.7589358126
 O         1.2967820264       -0.4958075217       -2.0558982579
 C        -1.1850074014        0.7667570378       -2.9790990932
 C        -2.0066602619        0.7913607890       -0.5096827496
 C         2.1427211362        1.3862602385       -0.0466798131
 C         1.6906785167        2.5970947922       -0.8373249566
 C         2.3486846286        3.9616990532       -0.4509599477
 C         2.0034402195        4.3685748639        1.1299358883
 C         2.6937999517        5.6200684194        1.6467183301
 C         3.9528841569        3.7770738929       -0.4854103548
 C         1.8578645444        5.0606588845       -1.4087213263
 O         0.7870661287        2.5311360816       -1.6964188644
 O         1.2548135323        3.7458675788        1.8717039173
 C         3.3546570930        5.5158968242        3.0460119377
 C         3.6217055642        4.0333669891        3.5936646606
 C         3.5914682975        3.8032147982        5.1203808609
 C         2.0007657436        3.9145559715        5.4092025890
 C         1.0554821417        2.6890687165        5.0752847251
 O         3.8454396453        3.0823057017        2.8090358182
 O         1.5567722514        4.9009454388        5.9501565389
 C         3.9132549126        2.3023621613        5.3764800203
 C         4.4232781520        4.8148846717        5.9288291187
 C        -0.4166683609        2.9547139277        4.9078896052
 C        -1.0702526836        1.4984301648        4.9923333598
 C        -1.6233529732        1.0670880834        6.3028948136
 C        -3.0200162988        1.9594143411        6.5353752214
 C        -4.1161489941        1.8998162850        5.4294905774
 C        -2.0720253871       -0.4186117203        6.3014432056
 C        -0.7596923922        1.4164097228        7.4908224672
 O        -1.0539510169        0.7786442691        4.0037124234
 O        -3.2045994865        2.5844211189        7.5561038980
 C        -5.3505476519        2.7624947622        5.8916193332
 C        -6.0727040290        3.6250402814        4.7345170916
 C        -6.6905837793        4.9827201183        5.2251864953
 C        -7.4086962563        4.6191888473        6.6313387586
 C        -8.7479388631        3.9659964536        6.4981985410
 O        -5.9619423731        3.2554924141        3.5450114390
 O        -6.9495477867        4.9531122790        7.6971437786
 C        -5.4834638116        5.9966314849        5.5428145319
 C        -7.6172499267        5.6710468841        4.1909896544
 H         5.0253846722       -4.3298474625       -5.1894600385
 H         5.0144984302       -3.4340158613       -6.7389064183
 H         5.5852600616       -2.6977734769       -5.2697788205
 H         1.0232288895       -0.6953933510       -8.0477594241
 H         1.3642029730       -2.3743130094       -8.3027685686
 H         4.0304089299       -0.3805413350       -4.6041221198
 H         2.3629690564       -0.1674660226       -4.3808339117
 H         3.2264487808        0.5651293911       -5.7429484663
 H         3.6731458606       -2.1493199007       -8.0868371736
 H         3.2961155838       -0.4505133541       -7.8617519535
 H         4.7337801000       -1.0840674550       -7.2710855365
 H        -0.9114360667       -2.1884111161       -6.5511043854
 H        -1.2353906435       -1.7523467364       -8.2903670899
 H        -2.1394561454       -6.7810723137       -6.2599444404
 H        -0.6729494275       -6.1396117581       -6.0171379018
 H        -2.9336057232       -3.0216815231       -8.9416424737
 H        -3.4375589640       -2.7619990085       -7.2475092230
 H        -4.1493551796       -3.9784145639       -8.3502211462
 H        -3.3485092857       -6.0544848948       -8.2774789882
 H        -1.9946925132       -5.6833418419       -9.4676203599
 H        -1.6273261911       -6.4916810714       -8.1507307860
 H        -1.4950945903       -7.5080761424       -4.0927324228
 H        -2.8150165689       -6.2859239669       -3.8426459044
 H        -3.1646513760       -3.8372716114       -1.2761794940
 H        -2.7082441679       -4.0723662855        0.2982669984
 H        -3.1007948102       -6.1809067106       -1.7582729792
 H        -2.4665129665       -6.2713163593       -0.1742386952
 H        -2.2129836932       -7.6094535615       -1.4789661937
 H         0.0124917439       -7.0400662273       -0.2912507225
 H         0.7209160533       -7.0968747895       -1.9094153938
 H         1.0369486323       -5.7810563033       -0.7982247432
 H        -3.1964129800       -1.5180298542       -0.3188144380
 H        -1.5248658322       -1.8956769125        0.4159087309
 H         0.2755303262        0.5603762119        0.7669701898
 H         1.4729166245       -0.6866501788        0.5530450988
 H        -0.8483033022        1.8439577157       -2.7954322013
 H        -2.1821396439        0.7664124742       -3.4596632269
 H        -0.3618074760        0.4759561945       -3.7159384818
 H        -1.7570070155        1.8301500918       -0.4749848859
 H        -3.0238124123        0.5821679642       -0.5555444518
 H        -1.6432245694        0.3743499313        0.4963054651
 H         2.9227551225        0.9618826283       -0.6028234108
 H         2.6136496677        1.6999111684        0.9023811011
 H         3.4770212761        6.0357274170        0.9820650304
 H         1.9380285850        6.4112255012        1.7764416428
 H         4.4177132443        4.6282563475       -0.8930163082
 H         4.2360068549        2.9731222933       -1.1285219577
 H         4.3859817234        3.7100006337        0.5291304199
 H         1.6629905366        4.5882324282       -2.3602298551
 H         1.0101733487        5.5135090898       -1.0370052390
 H         2.6541292916        5.8263745240       -1.6800135756
 H         4.3294816810        5.9690620379        2.8707201300
 H         2.8113544739        6.0777063224        3.7657754600
 H         1.3867858574        2.1750318602        4.1370495743
 H         1.3918629411        2.0580268044        5.9383876731
 H         4.9728001001        2.2341480585        5.6693711071
 H         3.5021700848        1.8257355800        4.5108023214
 H         3.4580115433        1.9938534201        6.3075163766
 H         4.3283776921        5.7814906067        5.3448635958
 H         4.1495187413        4.8738197916        6.9269820667
 H         5.5374516587        4.5352536821        5.8076228043
 H        -0.3964848835        3.4633691199        3.8700834334
 H        -0.7746922695        3.6355133302        5.6796431564
 H        -3.7155313775        2.1567870698        4.4537369612
 H        -4.3331877113        0.8677488484        5.2559650695
 H        -1.3298618845       -1.1564134154        6.1513535553
 H        -2.8315910947       -0.5720406787        5.4758360979
 H        -2.5887116754       -0.7934476788        7.2080996020
 H        -0.1829537000        2.3473608530        7.5706232827
 H        -1.3670497759        1.1388594577        8.3619353402
 H         0.0114850075        0.6679900605        7.5862289940
 H        -6.1125461712        2.1164445506        6.3458324754
 H        -5.2300533070        3.3751530849        6.7997693061
 H        -9.5071289551        4.6703428323        6.6926364187
 H        -9.0750618042        3.5348926800        5.5048993331
 H        -8.8036140192        3.1165252937        7.2819441319
 H        -4.9047220717        5.7209770670        6.4834376996
 H        -5.8406397816        7.0300998293        5.4307388318
 H        -4.6711175928        5.8457748731        4.8436429485
 H        -7.6915349383        6.7916650407        4.3620787221
 H        -7.1367645760        5.5545712398        3.2194484300
 H        -8.6409853574        5.3592836493        4.0933543909
 Na        0.7508102691       -2.8007229044       -2.9346191148
