155

 C         4.1188507669       -3.3200124246       -6.0756853037
 C         3.3263876575       -2.4591875900       -5.0714437935
 C         2.6985166792       -0.9911274531       -5.4914378032
 C         1.1816717660       -1.5472738612       -5.9452981077
 C         0.6572769776       -1.1941841400       -7.2994933679
 C         2.4881703511       -0.1078901962       -4.3090825381
 C         3.5978893966       -0.3210321132       -6.5444066761
 O         2.9915824134       -2.8682438723       -3.9686180820
 O         0.4571883442       -2.0208527557       -5.0781714790
 C        -0.6046948180       -1.9509688334       -7.7211890173
 C        -0.3428112076       -3.4982628324       -7.6562615386
 C        -1.6241772177       -4.4966418202       -7.5418410859
 C        -2.2324336825       -4.4274624508       -5.9568667095
 C        -2.3517952169       -5.6582268332       -5.0372948060
 O         0.7705281344       -3.9580905474       -7.6720726566
 O        -2.6053951775       -3.3454328813       -5.5412589317
 C        -2.8591899403       -3.8777418114       -8.2794373877
 C        -1.2738641633       -5.8374833084       -8.0619224034
 C        -2.5409525265       -5.3163568405       -3.5819928714
 C        -1.0782883337       -5.0983680707       -2.9199378342
 C        -0.6203259723       -5.6915353371       -1.4899205896
 C        -0.6016201772       -4.3574405753       -0.5428588405
 C        -1.8596177513       -3.7318647735        0.0002132741
 C        -1.6489521388       -6.7154891501       -0.9066344310
 C         0.7468757320       -6.2948665092       -1.5167099043
 O        -0.2709646174       -4.4692744581       -3.5355626884
 O         0.5342089963       -3.8764432321       -0.4027397617
 C        -1.7594261979       -2.2095008275        0.1015267967
 C        -1.3036847342       -1.5327039272       -1.2190202019
 C        -0.8960305395       -0.0250912594       -1.2381705171
 C         0.6081947842       -0.0608354679       -0.8654156005
 C         1.1537938205        0.5242356992        0.4048392852
 O        -1.2072220439       -2.1927085976       -2.2383104923
 O         1.2545687653       -0.8817423651       -1.4760111742
 C        -1.0472940650        0.4092091820       -2.7496963552
 C        -1.7700666750        0.9932072056       -0.3770385640
 C         2.2643129388        1.5867392294        0.1686612762
 C         1.8579468269        2.7588275969       -0.8178170999
 C         2.7348505644        4.0758847676       -0.6847437908
 C         2.5179957502        4.5619516537        0.8415552265
 C         3.3634528118        5.6665672404        1.3467022306
 C         4.3300993273        3.8398136143       -0.9832654970
 C         2.2558201850        5.2300381198       -1.5560697263
 O         1.1505419747        2.4533004142       -1.7555378823
 O         1.5573876803        4.1811863324        1.5392832554
 C         3.3627566717        5.5274372410        2.9293920297
 C         4.0228229917        4.1964619936        3.2483925009
 C         3.5476169842        3.4960139056        4.6648550463
 C         1.9847524765        3.5193739387        4.8633840718
 C         1.1963586793        2.0957072890        4.8552408584
 O         4.8727356159        3.6974017028        2.5695445222
 O         1.4491703642        4.5949867485        5.1528580403
 C         4.1092166334        2.0963088666        4.8315210817
 C         4.1701582228        4.3954812855        5.9143703996
 C        -0.1752972227        2.2089408439        5.6304753015
 C        -1.2542955759        1.2567421281        5.0870094992
 C        -2.3034744460        0.5372972858        6.1403817755
 C        -3.4159804646        1.5748939055        6.4891261001
 C        -4.5756248567        1.7081715554        5.5593402188
 C        -2.7255151780       -0.8054859612        5.4800108001
 C        -1.5805379308        0.1936981119        7.4250303506
 O        -1.2891250008        0.9730375730        3.8982789531
 O        -3.2436986419        2.3520664731        7.4440148879
 C        -5.5298193860        2.9378610277        5.8429511084
 C        -6.3943817522        3.2199916603        4.6133997395
 C        -7.2985083309        4.5910293381        4.5434632844
 C        -8.3718665250        4.3608484769        5.6211472425
 C        -9.7702119063        4.2511046989        5.1493567670
 O        -6.5657481026        2.2754815575        3.7832926960
 O        -8.1287565611        4.5151967716        6.7944540258
 C        -6.3498290545        5.7771039355        4.9731028737
 C        -7.7878349117        4.7205917471        3.1490046125
 H         4.5668767285       -4.0989556018       -5.5096705212
 H         3.4823084746       -3.8796208471       -6.7943860998
 H         4.8991581904       -2.7703973258       -6.6036319745
 H         0.5346383480       -0.1016373532       -7.1905914028
 H         1.3384576664       -1.2819099825       -8.2220877581
 H         3.3521269780        0.4868087143       -4.0597581496
 H         2.3719051767       -0.7350052549       -3.3873642225
 H         1.5527510492        0.4856847048       -4.3346991375
 H         3.7238457106       -0.9262685958       -7.4330311794
 H         3.1383991517        0.6390809864       -6.9369059363
 H         4.5953752200       -0.2161629657       -6.0848335300
 H        -1.4236172050       -1.5103085375       -7.1516436411
 H        -0.9453395646       -1.7337048483       -8.7013260959
 H        -3.2147648909       -6.1445091035       -5.2898759088
 H        -1.4547338622       -6.2236439114       -5.2944302841
 H        -2.6261386211       -3.7105730292       -9.2565345510
 H        -3.0211129526       -2.9229017379       -7.7835761015
 H        -3.7653973423       -4.5035376933       -8.2245007870
 H        -1.8372900618       -6.6511517716       -7.5942296547
 H        -1.6215990858       -5.8454576810       -9.0646035543
 H        -0.2383222274       -6.0947077841       -7.9222105030
 H        -3.1116120392       -6.1101101847       -3.1067666149
 H        -3.1595483403       -4.4220530024       -3.5173797160
 H        -2.7112000324       -4.0027903428       -0.6694795891
 H        -2.1073203333       -4.1827943277        1.0289608414
 H        -2.6934451346       -6.3014567566       -0.8970602240
 H        -1.3174898859       -6.8995512173        0.1742676816
 H        -1.7145595839       -7.5954844917       -1.4731346759
 H         1.0129804029       -6.7946651163       -0.5683357549
 H         0.8998789325       -6.9967386218       -2.3035307341
 H         1.4170214951       -5.4645769223       -1.6583103638
 H        -2.7535809748       -1.7804770054        0.2337645187
 H        -1.2540606700       -1.6427158892        0.9246605070
 H         0.3257750157        0.8874796509        0.9564927861
 H         1.6836349758       -0.3408723860        0.8562917152
 H        -1.0565706683        1.5747795647       -2.8612564453
 H        -1.8326858431       -0.0327235013       -3.3742178245
 H        -0.1281008928       -0.0291331931       -3.2291430360
 H        -1.3608392025        1.9888037388       -0.3676543603
 H        -2.7695896502        0.9065222297       -0.6911288049
 H        -1.7077810489        0.5947227052        0.7164679949
 H         3.1610257191        1.1462683549       -0.2411583505
 H         2.6579382651        1.9336740986        1.0721924778
 H         4.3728018187        5.7174461891        0.9327425027
 H         2.9726620251        6.6937352018        1.0866401723
 H         4.8096862863        4.8134563944       -0.7313620574
 H         4.5201421282        3.5441489601       -1.9803968435
 H         4.7233462345        3.0273307293       -0.3970049781
 H         2.5395850025        4.9895791772       -2.5658890633
 H         1.2010501894        5.2847404797       -1.5614279013
 H         2.7370453878        6.1324738665       -1.1499465087
 H         3.8768103293        6.3730307561        3.4312720228
 H         2.3382194736        5.5161959633        3.2513145336
 H         1.1762317549        1.9301405988        3.7256598684
 H         1.7773030203        1.3252760690        5.4352400844
 H         4.9890206284        1.9727736134        4.2027804594
 H         3.4942343933        1.3510931268        4.3532917716
 H         4.1771085001        1.7652466464        5.8568412996
 H         3.7296084839        5.4518178528        5.8846599848
 H         3.9546380875        4.0689716668        6.8985248728
 H         5.3286598724        4.4603883373        5.9068811188
 H        -0.5476658979        3.2001514029        5.4449437892
 H        -0.1273183023        2.1554111550        6.7119385390
 H        -4.1162992723        1.7126781159        4.5595213862
 H        -5.2078586058        0.8375515480        5.7148022224
 H        -1.8433262366       -1.2975851896        5.2254603259
 H        -3.3449460358       -0.6826695154        4.5600274270
 H        -3.3128066798       -1.4250226998        6.1558512357
 H        -1.2937348766        1.1168399917        8.0401249483
 H        -2.2590966125       -0.3745675997        8.1224502466
 H        -0.7202451825       -0.4551011181        7.1150459504
 H        -6.1512810933        2.7021424784        6.6408255083
 H        -4.8614480613        3.7748620914        6.0807703544
 H        -9.8921041637        4.1132231271        4.1107910188
 H       -10.1507554680        3.2765060477        5.6399369391
 H       -10.5600158799        5.0508837901        5.4102916385
 H        -6.6425994845        6.3909223946        5.8341903733
 H        -6.4170258791        6.5845977450        4.1516083645
 H        -5.4000354715        5.3329144156        4.8325753977
 H        -8.5370985518        5.5113568298        3.0127915448
 H        -7.0093709166        5.0401581414        2.4291205891
 H        -8.1969049853        3.8102326605        2.7779559357
 Na        0.9955899264       -2.6192694704       -2.9206042506
