155

 C         4.8705518677       -0.9274762412       -5.7340766302
 C         3.5030123358       -0.7529043337       -5.0579387003
 C         2.3799096501       -0.0910457290       -5.9484101768
 C         1.3615825684       -1.2321699851       -6.3496533340
 C         0.8705130532       -1.3931775352       -7.8293887214
 C         1.5213420386        0.9484028127       -5.0844149863
 C         2.8556775401        0.7278643029       -7.2154477970
 O         3.3884264364       -1.1097742253       -3.9431996013
 O         0.9522052435       -2.0053025137       -5.5104359191
 C        -0.5858311493       -2.1533077722       -7.7080633069
 C        -0.2732935967       -3.6081815402       -7.4813580343
 C        -1.2577476032       -4.6062285848       -6.9143750026
 C        -0.7149183833       -4.8401180001       -5.4922233143
 C         0.2505617962       -5.9948305806       -5.2678178030
 O         0.7702319183       -4.0642784111       -7.8491742868
 O        -1.0819011351       -4.1753979207       -4.5356038971
 C        -2.7572214134       -4.0309697965       -6.7863422327
 C        -1.3595975347       -5.8634523456       -7.7794528379
 C         0.3489779356       -6.3093809797       -3.7403221025
 C         0.5092148150       -5.0844937365       -2.8409836157
 C        -0.3234607346       -5.0335914659       -1.3733811685
 C        -0.9321546759       -3.6645422290       -1.3396849896
 C        -2.3919860721       -3.1962642782       -1.8394982171
 C        -1.3667398044       -6.1897338304       -1.2229458004
 C         0.7481151805       -5.2265797079       -0.2273825479
 O         1.3241151454       -4.2081412656       -3.0192288003
 O        -0.2719852379       -2.7683110121       -0.8729206299
 C        -2.6269143318       -1.7078615243       -1.6376246293
 C        -1.2969814017       -0.8082514487       -1.7077086626
 C        -0.8845995175        0.2563600691       -0.6398939856
 C         0.7815317634        0.1236216334       -0.3602318276
 C         1.2957754188        0.6966519176        1.0516429341
 O        -0.7386561388       -0.7299805343       -2.7755565844
 O         1.5867855516       -0.3843912642       -1.0885242062
 C        -1.2553710259        1.5474704136       -1.3609356469
 C        -1.6437682968        0.2479278845        0.6768886882
 C         2.8005761129        1.2992900301        0.9115094312
 C         2.6539112477        2.6640826381        0.1623044444
 C         3.4999705590        3.8561194730        0.7347476117
 C         3.0884121381        4.0961558123        2.2115210500
 C         4.1078713830        4.6136729306        3.3017180315
 C         5.0669000349        3.5367016389        0.5030095054
 C         3.2824790581        5.2124906518       -0.0024613647
 O         1.8553865999        2.8430631294       -0.7415502471
 O         1.9397312875        3.8679574192        2.5225391951
 C         3.2673005178        5.1636248655        4.5901318834
 C         3.4194775211        4.2300284067        5.7862396646
 C         2.4447915470        4.3816428381        7.1715505870
 C         1.0403364546        4.5867168908        6.5716884062
 C         0.5307441334        3.7029260789        5.4078977038
 O         4.0545124040        3.1731744996        5.7121327146
 O         0.2982465591        5.4327530811        6.9378981714
 C         2.4396543026        3.0618077419        7.8509998960
 C         2.8201892650        5.5762100712        8.1012892037
 C        -0.8173822413        2.9715822789        5.9954644867
 C        -1.4712230510        2.0363753930        4.9765298920
 C        -2.5982334086        1.1695857504        5.5220150821
 C        -3.9424353181        1.7970499716        5.0445645704
 C        -4.5633906002        1.3913931440        3.7474757306
 C        -2.3690272223       -0.2452067794        5.0384363643
 C        -2.7098623100        0.9914517255        7.1546566630
 O        -1.2689042125        2.0192278096        3.8045627656
 O        -4.4668202818        2.6123517137        5.7874512121
 C        -5.8084333976        2.2822366850        3.1697715826
 C        -6.6929314225        1.5298958374        2.0837570288
 C        -8.0506728395        1.8998704049        1.6850848999
 C        -9.1284914609        0.8396614278        2.5160852815
 C       -10.6266210102        0.7360401865        2.2160249730
 O        -6.1454710440        0.6734423634        1.4444847000
 O        -8.6420854694        0.1995144508        3.4715981732
 C        -8.6330282085        3.2993728556        2.0094010117
 C        -8.2077778200        1.5125920710        0.1934951520
 H         4.9241281818       -1.4498766292       -6.7348971433
 H         5.4727957460       -0.0019101799       -5.7309000453
 H         5.3299152559       -1.4299964912       -4.9792262935
 H         0.7188875058       -0.4062376369       -8.1763646902
 H         1.5734561667       -1.9413795440       -8.4040742910
 H         1.0050987929        0.4938845205       -4.3246979219
 H         0.8038176983        1.3772255119       -5.7681246942
 H         2.1736867406        1.6658358965       -4.5485602450
 H         3.3065614102        0.0616733364       -7.9850332563
 H         1.9817562171        1.0987140532       -7.5870227007
 H         3.4976917521        1.5259056968       -6.8548067177
 H        -0.9667627330       -1.6084536943       -6.8085319211
 H        -1.1959735544       -2.0371784372       -8.5449334502
 H        -0.1226389376       -6.8693651553       -5.6776055836
 H         1.2932282390       -5.7762841829       -5.5252456971
 H        -2.9925905394       -3.8000944038       -7.8158071612
 H        -2.7364900113       -3.0503159104       -6.1917989788
 H        -3.3056218307       -4.7917918199       -6.2295140532
 H        -1.9180453481       -6.6409379852       -7.1788486892
 H        -1.9937077245       -5.5130127745       -8.6175542292
 H        -0.3717622554       -6.2157690766       -8.1087776965
 H         1.2902670869       -6.9060367266       -3.6223548908
 H        -0.5322876440       -6.7962177839       -3.4420157621
 H        -2.3894366400       -3.5016227136       -2.8931978800
 H        -3.1545237032       -3.8938329703       -1.3093486712
 H        -2.2211966353       -6.0435200285       -1.9523160236
 H        -1.7329854654       -6.1692872729       -0.2385957130
 H        -0.8574709247       -7.1397987186       -1.3898596545
 H         0.1958974579       -5.3712216511        0.6685779950
 H         1.3698022558       -6.1267661921       -0.3036010040
 H         1.4225390275       -4.3583148230       -0.1777913662
 H        -3.2404750297       -1.1713259680       -2.3289983560
 H        -3.1006170254       -1.5430651057       -0.6521825824
 H         0.7223604098        1.5610191355        1.2894659266
 H         1.2378790742       -0.0215622380        1.8097719893
 H        -1.0719844203        2.4321227929       -0.8450266696
 H        -2.2890923191        1.5138190380       -1.6094811340
 H        -0.7918215797        1.6971006015       -2.3481516708
 H        -0.9563442332        0.6360962476        1.3272731554
 H        -2.6244425139        0.5852265784        0.7319833559
 H        -1.8061993483       -0.7714548614        1.0154654625
 H         3.3278339313        0.6809505144        0.1680730470
 H         3.3120975732        1.3668616352        1.8530788324
 H         4.9860266888        4.0463284884        3.5475000928
 H         4.4200808337        5.5768066980        2.9592623739
 H         5.7252151960        4.3785844300        0.7991660796
 H         5.2439561392        3.2189335199       -0.5080697417
 H         5.2058153354        2.5874608512        1.1007071609
 H         3.6242062282        5.1571262523       -0.9651007979
 H         2.2185374904        5.4900317104       -0.1704902736
 H         3.8768215247        5.9127805900        0.5669736963
 H         3.6875099761        6.0947086790        4.9147622338
 H         2.1794634972        5.1970692738        4.4189646325
 H         0.2798624797        4.2727898690        4.4655008931
 H         1.1733048202        2.9679576364        5.0402568140
 H         1.5788009387        2.9193009838        8.4793758331
 H         3.2958358712        2.9282134247        8.5557976844
 H         2.5801554604        2.3757711664        7.0323608034
 H         2.5468087166        6.3953854734        7.5248620647
 H         2.2329136832        5.4978026835        9.0867391239
 H         3.8257068654        5.4294366405        8.2613956101
 H        -1.5313101669        3.7386368628        6.3254977224
 H        -0.5979740487        2.2006200787        6.8598958183
 H        -3.7999812966        1.4244913253        2.9312723714
 H        -4.9157911509        0.3876900513        3.9998641730
 H        -1.5155759697       -0.7555420004        5.5364499432
 H        -2.1392723646       -0.2218015110        4.0250276061
 H        -3.2097772734       -0.8951486894        5.1579169299
 H        -2.5981999748        1.9893404658        7.6225098891
 H        -3.6632505144        0.5585370461        7.6236187043
 H        -1.9416578246        0.2985222880        7.5244669563
 H        -6.3953116766        2.7951602760        3.9792959111
 H        -5.3806056721        3.1338538399        2.6998904419
 H       -10.7532797554        0.6038072015        1.0689880656
 H       -11.0067863099       -0.1949676521        2.7180850221
 H       -11.2057823046        1.6010847879        2.4209236198
 H        -8.5973392253        3.6152907058        3.0370105137
 H        -9.6832188817        3.1982753438        1.7251578258
 H        -7.9542766625        4.0434026151        1.4956761186
 H        -9.2822364355        1.6210169994        0.0330461682
 H        -7.6811724392        2.2423343302       -0.4090596568
 H        -7.9906778017        0.4906243162        0.0878070494
 Na        1.2126510665       -2.1062735028       -2.9055309183
