155

 C         4.8646040331       -0.9482558121       -5.6503253307
 C         3.5168606005       -0.7293714261       -5.1180638316
 C         2.3758204992       -0.0335048009       -5.9851392172
 C         1.3163006018       -1.2394476868       -6.2177326679
 C         0.6284557500       -1.2590822791       -7.5684001423
 C         1.6480558330        0.9528296613       -5.0917074819
 C         2.9749360430        0.5176656192       -7.3311393673
 O         3.2343048216       -1.1401930471       -3.9660947733
 O         1.0206227349       -2.0203917744       -5.3303875586
 C        -0.5103172957       -2.2403601161       -7.6848113150
 C        -0.1719487573       -3.6903507938       -7.5044099683
 C        -1.2595510871       -4.6397100583       -6.8891175831
 C        -0.7640275133       -4.9193294076       -5.4308518425
 C         0.3852650347       -5.8199518008       -5.1598042297
 O         0.8889215496       -4.1365938525       -7.9143444353
 O        -1.3549453573       -4.3603737467       -4.5423089428
 C        -2.6263476347       -3.9009868135       -6.8352863502
 C        -1.3556544446       -5.9077850133       -7.7183038874
 C         0.4578879922       -6.4182352573       -3.6654629444
 C         0.6962007521       -5.1392902612       -2.7182825136
 C        -0.2938805609       -4.9411988193       -1.4548422430
 C        -0.9127648337       -3.4885511537       -1.3692098613
 C        -2.1795705501       -3.0661016589       -2.0396978448
 C        -1.3567785129       -6.1127226034       -1.3633290256
 C         0.6836380017       -4.9709350792       -0.2427288376
 O         1.6043175486       -4.3574113768       -2.9503283234
 O        -0.1403089665       -2.6638487515       -0.8657313305
 C        -2.5608670848       -1.6248887958       -1.5803666233
 C        -1.3921654988       -0.6724645919       -1.8380676528
 C        -0.9213596930        0.2374409425       -0.7316878604
 C         0.6593564841        0.1474745292       -0.4836489255
 C         1.1204758652        0.7688399102        0.8861754017
 O        -0.8514335536       -0.6547007694       -2.9405793684
 O         1.4190346252       -0.2675437934       -1.3380812675
 C        -1.1483316073        1.8304158442       -0.9357642175
 C        -1.5378990975       -0.2165388585        0.6187282574
 C         2.5697906577        1.2740798529        0.8302993863
 C         2.5095611198        2.7965568780        0.3236608475
 C         3.5787740287        3.7699400266        0.9186564822
 C         3.1443234904        3.9990908283        2.4228180609
 C         4.0906247877        4.5687566767        3.4511683495
 C         5.0351482209        3.3498207443        0.7165739060
 C         3.2239976282        5.2062391631        0.1958481876
 O         1.7665934868        3.1341224264       -0.5417504656
 O         1.9561273796        3.8103794913        2.6464901730
 C         3.4467803407        5.0355721044        4.7007914877
 C         3.3455472956        4.0411085121        5.8637615487
 C         2.3562159744        4.4181233329        6.9639121326
 C         0.9343734604        4.7197748196        6.4214306720
 C         0.2727556112        3.7497612076        5.4483690163
 O         4.1025177266        3.1378754302        5.7900352657
 O         0.3674409413        5.7308157107        6.8286276241
 C         2.4019625769        3.1584646319        8.0195842119
 C         2.9488180445        5.7136966083        7.7547014537
 C        -0.9350161946        3.0588203869        5.9869277550
 C        -1.6035292241        2.0288092120        5.0526675331
 C        -2.7764340267        1.0883935522        5.5635699127
 C        -4.0876973393        1.7986310199        5.1001202387
 C        -4.5670663254        1.4375370408        3.6424738662
 C        -2.5522779208       -0.3001796652        4.9821001983
 C        -2.7240874706        1.0619770082        7.0903896993
 O        -1.2474144053        1.9753781497        3.8864489611
 O        -4.6544577741        2.6013029913        5.7505403665
 C        -5.8763186975        2.0802126986        3.2222837658
 C        -6.5555845702        1.3024648855        2.1185583814
 C        -7.9240989743        1.6911386133        1.6062361152
 C        -9.0150612085        0.6921434536        2.3292539797
 C       -10.5760472262        0.7970626706        1.9829825525
 O        -6.0090472382        0.2812380270        1.6218967727
 O        -8.6698098623       -0.1278235909        3.0857511551
 C        -8.4703941168        3.1381342136        2.0291069410
 C        -8.1763844989        1.6387973876        0.0693348033
 H         4.7032928196       -1.5322620023       -6.5183395123
 H         5.2690164516        0.0144354990       -5.9344199331
 H         5.6280530028       -1.3875795603       -4.9022643436
 H         0.3489262856       -0.2235229182       -7.8279346959
 H         1.3671687992       -1.6822725255       -8.3070251580
 H         1.9123255135        0.9139380967       -4.0010806858
 H         0.5992656798        0.8149711889       -5.1861934626
 H         1.9576283409        1.9460286128       -5.2898223710
 H         3.5036771051       -0.2555057635       -7.8217574597
 H         2.0883969439        0.7406356381       -8.0085132850
 H         3.5941121859        1.3898957529       -7.1060512671
 H        -1.2140815714       -1.8482828838       -7.0040575479
 H        -0.7726514755       -2.2048252652       -8.8201076454
 H         0.4265895245       -6.7207759227       -5.8630514105
 H         1.2953454093       -5.2334565234       -5.2002398365
 H        -2.7380067080       -3.3983094979       -7.8013066608
 H        -2.6360743401       -3.2315311440       -6.0639468112
 H        -3.3121810342       -4.6958593458       -6.6128452779
 H        -1.6812373299       -6.7215437545       -7.1147178177
 H        -1.9636189188       -5.7102761102       -8.5841359526
 H        -0.3301148112       -6.1038242187       -8.0428818155
 H         1.2802608082       -7.0651902809       -3.6626482473
 H        -0.5193560906       -6.9155888270       -3.4479746918
 H        -2.0493930486       -3.0804306755       -3.1486085641
 H        -2.9216957389       -3.8248206651       -1.8626872874
 H        -1.9954385792       -6.1420568791       -2.1781781632
 H        -2.0167542578       -5.8686286693       -0.5192399856
 H        -0.8267363606       -7.0432547043       -1.1622129882
 H         0.1412247671       -4.7439603150        0.7002385948
 H         1.1515204624       -5.9178950317       -0.0794459634
 H         1.4683110685       -4.2570953346       -0.3903864202
 H        -3.4391872343       -1.3615344260       -2.2535570489
 H        -2.9280319842       -1.4993771072       -0.5715143222
 H         0.5403659067        1.6595429443        1.2470309199
 H         1.1110614618       -0.0620448038        1.6708451948
 H        -1.0799071320        2.3734095514        0.0897562341
 H        -1.9459371009        2.3530535473       -1.5188255039
 H        -0.2200344885        2.2458630696       -1.3934046034
 H        -1.3774117069        0.5706313293        1.3550289401
 H        -2.6012910742       -0.5341634375        0.5597902619
 H        -1.1259909071       -1.1094179243        1.0830458313
 H         3.1838159377        0.7089669006        0.1342288984
 H         2.9259139336        1.1183626722        1.8981160480
 H         4.7458441818        3.7063664435        3.6944421534
 H         4.7489924598        5.3974892109        3.1569360197
 H         5.5913219333        4.2696494871        0.7535480875
 H         5.1848993358        2.8567100135       -0.2558913869
 H         5.3566529002        2.7149142915        1.5065745974
 H         3.2997240663        5.2336383946       -0.9380480715
 H         2.1794671462        5.2993805342        0.3700206183
 H         3.8204602308        6.0194326132        0.6213837299
 H         4.1317241200        5.8169637656        5.1614711026
 H         2.4553022933        5.4397455596        4.4113010562
 H         0.0109234801        4.3161825503        4.5935610702
 H         0.9847024662        2.9327039285        5.1360422599
 H         1.9202351455        3.4212981807        8.9833811067
 H         3.4361305933        3.0715650616        8.2803281868
 H         1.9775494039        2.2291774527        7.5899602550
 H         2.7751838602        6.6220575894        7.1191116668
 H         2.3904555736        5.7818418292        8.6022798667
 H         3.9776791433        5.3484690427        7.9403970029
 H        -1.6946667513        3.8299558863        6.2183090037
 H        -0.7349501834        2.5676233113        6.8861313698
 H        -3.8255518711        1.8708437699        3.0242592217
 H        -4.7107681076        0.3784505764        3.4939031983
 H        -1.6480555110       -0.7452079960        5.3252291200
 H        -2.5687481727       -0.1662025690        3.8218394601
 H        -3.3518713248       -1.0671973381        5.1046798248
 H        -3.1384509495        1.9854310237        7.5215541916
 H        -3.3379235508        0.2616071348        7.4309092110
 H        -1.7252456375        0.7871016699        7.5207550319
 H        -6.5260961930        2.2682964894        4.0884427413
 H        -5.6242646991        3.1116710325        2.7951303864
 H       -10.8696359227        0.7907980465        0.9761117259
 H       -11.0541702288        0.0346286276        2.5584313113
 H       -10.9070638440        1.8514779404        2.3167757925
 H        -8.7746096586        3.0852425561        3.1177926372
 H        -9.4734915996        3.1970151406        1.6708878714
 H        -7.7979187501        3.9237853230        1.8919062530
 H        -9.2259740647        1.8125444460       -0.0420350632
 H        -7.6707165392        2.4949688616       -0.3357957419
 H        -8.0204423898        0.6260544572       -0.2958697289
 Na        1.2830357518       -1.7762341562       -2.9911096566
