155

 C         4.9051308321       -1.2221578661       -5.5935165965
 C         3.4947773439       -0.9382139307       -5.0740518872
 C         2.4178071832       -0.1456863555       -5.9301182002
 C         1.1708987834       -1.0593142433       -6.0646940945
 C         0.6754702999       -1.4016830760       -7.4193372145
 C         2.0840503053        1.1090584832       -5.1168235086
 C         2.9457737901        0.3123550823       -7.2635322898
 O         3.2104696435       -1.3093992665       -3.9683717811
 O         0.5721733223       -1.4308479261       -5.0872307289
 C        -0.5172011500       -2.4359990290       -7.5498705328
 C         0.0497943531       -3.8632820427       -7.4015187032
 C        -0.8963114604       -4.9982782200       -7.1383701768
 C        -0.7098201688       -5.5480780659       -5.6398803093
 C         0.6833374658       -5.9894205375       -5.1778109509
 O         1.2456387218       -4.0594477102       -7.5886253243
 O        -1.6524565822       -5.6285780521       -4.8992368509
 C        -2.3620915616       -4.5517031412       -7.1750384344
 C        -0.7522284569       -6.2113406545       -8.0209711280
 C         0.8112588256       -5.9719189781       -3.6053770636
 C         0.6428491862       -4.6087237867       -2.9188630006
 C        -0.1982347786       -4.5217165778       -1.6153080227
 C        -0.7523432932       -3.1993601327       -1.4601628666
 C        -1.9801186782       -2.7553906960       -2.3548888326
 C        -1.3588098371       -5.6225260067       -1.5868527384
 C         0.9343036858       -4.7644141425       -0.5850624919
 O         1.2520506783       -3.6577828639       -3.3359982765
 O        -0.2109753336       -2.4021547075       -0.7292066282
 C        -2.5334050811       -1.4608964143       -1.8848197378
 C        -1.3664824143       -0.3903940947       -1.7262554025
 C        -1.1299608156        0.3780211380       -0.3798532379
 C         0.4058282324        0.5808520255       -0.1936506177
 C         0.9242610550        0.8331087086        1.2528285847
 O        -0.9939065355        0.1030231167       -2.7847579965
 O         1.2223124290        0.5244019197       -1.0956295710
 C        -1.7596434543        1.8701547616       -0.7669324308
 C        -1.8122259789       -0.2642999003        0.8546240230
 C         2.3766926154        1.5652040314        1.3744579529
 C         2.4489918578        2.9555364035        0.7753333811
 C         3.6935482015        3.8635051880        1.2971286442
 C         3.4882004479        3.9811037696        2.8098116607
 C         4.5689675962        4.4710227422        3.8101057059
 C         5.1562088328        3.2619977865        0.9767099457
 C         3.6231367443        5.2697674009        0.6679241542
 O         1.6679828572        3.4878052684       -0.0042314743
 O         2.3638997897        3.7828058880        3.2149848350
 C         3.9557268366        5.1405134564        5.0584064368
 C         3.1604196891        4.1674753332        5.8092301874
 C         2.1462081751        4.7279253913        6.8223904684
 C         0.8454427984        4.7407594885        6.0449732524
 C         0.3395459913        3.5001644657        5.3239828970
 O         3.2888785028        2.9167251507        5.7175391390
 O         0.3075298706        5.7936249408        5.8556894140
 C         1.8915912305        3.6804072338        7.9935645311
 C         2.6751540813        6.1000752700        7.3839107444
 C        -1.1117293185        3.0949064175        5.9076436290
 C        -1.7712230691        1.9051362114        5.2067541866
 C        -2.9410474333        1.0736992845        5.8374687978
 C        -4.2269488936        1.5345203220        5.1561349401
 C        -4.6867600873        0.8761745055        3.8841297996
 C        -2.6573395886       -0.4409162286        5.6131235654
 C        -3.0672846399        1.2567267372        7.4410423682
 O        -1.4043693554        1.6265148507        4.1089973092
 O        -5.0043498541        2.3755968071        5.6524739087
 C        -6.1962809674        1.1236657128        3.4898220639
 C        -6.4075662376        0.9197531667        1.9212630102
 C        -7.8080319270        1.2933113761        1.2730443347
 C        -8.9787161889        0.1789661299        1.5193898687
 C       -10.4404642106        0.6154141402        1.2822084756
 O        -5.4877494456        0.5006416088        1.2174605431
 O        -8.6708815708       -0.9466669814        1.8410317386
 C        -8.2156655893        2.7001148408        1.8166842359
 C        -7.5448212196        1.3195785529       -0.3092620296
 H         4.9577045301       -1.9040715000       -6.4675301502
 H         5.4986027722       -0.2967841892       -5.8305155338
 H         5.3077926558       -1.8040048743       -4.8624330767
 H         0.3090079768       -0.4805956390       -7.7557161854
 H         1.3796103486       -1.6654712831       -8.1847798134
 H         1.6204374902        1.8523333947       -5.6763478371
 H         3.0276547183        1.4926165012       -4.7348669191
 H         1.5184751286        1.0358332793       -4.1456837210
 H         3.5015579528       -0.4664487260       -7.7784713436
 H         2.1452753076        0.6668533395       -7.8478267464
 H         3.6398074073        1.1940663429       -7.1859873255
 H        -1.2339333241       -2.0320843044       -6.8346029543
 H        -0.9085620190       -2.3315766351       -8.5781197718
 H         0.8887276832       -7.0121057611       -5.5650576339
 H         1.4524266143       -5.4554707098       -5.6954472792
 H        -2.7007848415       -4.0451181161       -8.1384189670
 H        -2.4901229367       -3.8512498479       -6.2899981664
 H        -3.0531859961       -5.3979564142       -7.0355340428
 H        -1.5507733037       -6.9640991710       -7.7924851902
 H        -1.0380069143       -6.0040276026       -9.0487033032
 H         0.2308013514       -6.6918491172       -7.9283471304
 H         1.7384967310       -6.3629763251       -3.2988099998
 H         0.1707964049       -6.7228616948       -3.1683021921
 H        -1.7240619634       -2.7675097014       -3.4236482210
 H        -2.6520038254       -3.6044757749       -2.4602912199
 H        -1.8285207212       -5.6799123277       -2.6013653186
 H        -2.0198788334       -5.5601815019       -0.7929826815
 H        -0.8996366890       -6.6612129141       -1.5513209562
 H         0.6415838537       -4.5685542886        0.4857408820
 H         1.3540964189       -5.7698794076       -0.6161580211
 H         1.7535730040       -4.0170458424       -0.7387380065
 H        -3.2737471362       -0.9495436547       -2.5221658507
 H        -2.9129012181       -1.5352957303       -0.8510276386
 H         0.2605561367        1.4610056517        1.8188976077
 H         0.9125123254       -0.0472831537        1.8167808028
 H        -1.9781540705        2.6562928174       -0.1128514173
 H        -2.5891208699        1.8972705423       -1.3772581324
 H        -0.9855935171        2.2070187991       -1.4689658075
 H        -1.2704626312       -0.1074373489        1.7498090549
 H        -2.7382681214        0.3147278154        1.0291194565
 H        -1.9799663996       -1.3637835885        0.7389875541
 H         3.1797403607        0.9935305924        1.0078923057
 H         2.6521869369        1.3856978150        2.3995217488
 H         5.2817985052        3.7353840338        4.0665817503
 H         5.1881249922        5.2030814124        3.3148898475
 H         5.9019075399        3.7892470150        1.5984939039
 H         5.4511363362        3.2973972115       -0.0777163906
 H         5.1555426027        2.1549459997        1.2619612577
 H         3.5194981512        5.1127511576       -0.3564265235
 H         2.7990323376        5.8347696754        1.1407688883
 H         4.4933028029        5.8937999721        0.8745645960
 H         4.7761382597        5.5136034909        5.6856107426
 H         3.2522499287        5.9586388847        4.7604037340
 H         0.1604943137        3.8470439346        4.3559229400
 H         1.1391208492        2.8013685723        5.3343868758
 H         0.7957460893        3.5421869255        8.2041307594
 H         2.5073289542        3.9668591779        8.8783621711
 H         2.2807482561        2.6868898846        7.8066707514
 H         2.7717488362        6.7651081931        6.5727950358
 H         1.9368060338        6.3910460963        8.2268278276
 H         3.6287585124        5.8967317727        7.7391127645
 H        -1.8436531675        3.9920492738        6.0914424756
 H        -0.8937100574        2.8584520394        6.9487692925
 H        -4.0745325242        1.2736287593        3.0819049848
 H        -4.4938736734       -0.2210615405        3.8099928453
 H        -1.8197270451       -0.8165839085        6.1329068978
 H        -2.3375311247       -0.5389489849        4.5678794236
 H        -3.5344123476       -1.0510690562        5.7556836116
 H        -3.3020627944        2.3189378050        7.5913498892
 H        -3.9466533762        0.6591879558        7.6896762292
 H        -2.1327840710        0.9690701088        7.9746269585
 H        -6.8101703018        0.3846112143        4.0196548474
 H        -6.3985820295        2.1699619654        3.7619665920
 H       -10.5603548248        1.5236443104        0.6377994707
 H       -11.1111108907       -0.1884410664        0.8750780240
 H       -10.7159414023        0.7208579237        2.2958835643
 H        -8.0342064990        2.6041071543        2.8713045574
 H        -9.1828920166        2.9835375977        1.4081645930
 H        -7.5600718530        3.4897856776        1.5010712860
 H        -8.5650080605        1.5444435260       -0.6205427966
 H        -6.8849083785        2.1797546555       -0.5973141107
 H        -7.0512296442        0.4524003187       -0.6784158161
 Na        1.1455136749       -1.1461667834       -2.7528034777
