155

 C         6.7628191493       -1.4601041584       -3.5071653384
 C         5.6002178462       -0.5881045871       -3.0452554582
 C         5.0636158653        0.7860370503       -3.7922590876
 C         4.0393963171        0.1655690224       -4.7947622872
 C         4.2663505371        0.0003021115       -6.3059635213
 C         4.4282884400        1.7831758267       -2.7461909186
 C         6.3003464135        1.5014287712       -4.4410572997
 O         4.9232239791       -1.0277822424       -2.1156729075
 O         2.9234518020       -0.0757969127       -4.3145559916
 C         3.5923800992       -1.3047285730       -6.8257489281
 C         4.5417052704       -2.5049114273       -6.8108233438
 C         4.0616529434       -3.8874006806       -7.3852024270
 C         3.2940069789       -4.4603220461       -6.1446197112
 C         4.1930149553       -4.8705439379       -4.8517326188
 O         5.6596109437       -2.5088513546       -6.2873301858
 O         2.0490890165       -4.5560959895       -6.1575391265
 C         3.1527679954       -3.8479928234       -8.5989910842
 C         5.3488203833       -4.7121684924       -7.8092179732
 C         3.2662786445       -5.3971044237       -3.7836486647
 C         2.4288308463       -4.3823230995       -2.9918579454
 C         1.3565238903       -4.8644027277       -1.9451850053
 C         0.5572417814       -3.5722861990       -1.5986060927
 C        -0.8539482496       -3.3312209431       -2.2602071889
 C         0.5392062322       -6.0664823832       -2.5058265861
 C         2.0934769672       -5.3526420526       -0.7289332627
 O         2.7325439308       -3.1983708351       -2.9827789739
 O         1.1351682106       -2.8020350502       -0.8551865916
 C        -1.4626173522       -2.0410301124       -1.7687231083
 C        -0.5370071095       -0.7959881054       -1.8807836925
 C        -0.9259077912        0.5695768630       -1.2361563397
 C         0.3653559082        1.1472229796       -0.4189310040
 C         0.2248840822        2.1212461549        0.7522223149
 O         0.3406872656       -0.7869741327       -2.7511896381
 O         1.4978762376        0.8165367522       -0.8232161916
 C        -1.0186730341        1.6275489954       -2.4779081031
 C        -2.3026902897        0.4229370081       -0.4986595561
 C         1.4598745434        2.1871676961        1.7023730351
 C         2.5548983103        3.1475919496        1.4696861330
 C         2.3608613203        4.7020100117        1.8744947134
 C         0.9756409486        5.0588013296        2.3241801468
 C         0.7737337490        5.0743574624        3.9084710736
 C         3.5228362032        4.9485306413        2.8476155535
 C         2.6517149132        5.4678396653        0.5595514690
 O         3.6516129788        2.8461683861        1.0647494944
 O         0.0326652000        5.2006704855        1.5459303333
 C        -0.6479888079        5.5443695454        4.3736154810
 C        -1.7014443251        4.4591613111        4.7224239572
 C        -3.1554422227        4.8835213144        5.1925662653
 C        -4.1850478391        3.7572909326        4.7848736354
 C        -3.9867562438        2.4283577589        5.6183829428
 O        -1.3657778101        3.2925070669        4.8004413896
 O        -4.9433489177        3.8516821851        3.9033168456
 C        -2.8853878611        5.1230683460        6.6397401700
 C        -3.5150940453        6.1928218795        4.3527732677
 C        -5.1134304562        1.4200540914        5.4150354068
 C        -4.8453166934        0.0166107813        5.9004402765
 C        -6.1708589126       -0.9309895246        6.2566357602
 C        -7.2997565937       -0.5186115051        5.3269195068
 C        -7.5922048494       -1.4168024447        4.1038134699
 C        -5.6188782110       -2.4102289720        6.0745212766
 C        -6.3729208663       -0.5671431198        7.7630301120
 O        -3.7414980349       -0.5337123140        6.0306712489
 O        -7.9266245244        0.5300679447        5.5728672039
 C        -8.1454700239       -0.7194486728        2.8478590729
 C        -7.0321175520       -0.2101593892        1.9492670678
 C        -7.4091925836        0.8167631942        0.9385893712
 C        -8.6550898947        0.3094002762       -0.0044755204
 C        -9.0999021722        1.2653932111       -1.0705650831
 O        -5.9751033372       -0.7420514911        1.9042948510
 O        -9.0964788495       -0.7712342493        0.1939289250
 C        -7.7184660056        2.1868143684        1.5592875487
 C        -6.2839965950        0.9651100467       -0.0782056881
 H         7.7900601121       -1.1267549020       -3.4756715449
 H         6.6889695406       -2.4068145905       -2.9763768245
 H         6.5487308172       -1.6766346214       -4.5655914148
 H         3.8125628770        0.9019405468       -6.7023123874
 H         5.2394480616        0.0812065864       -6.6803760677
 H         5.2495518588        2.2451705025       -2.2047527526
 H         3.8156064084        1.1473797257       -1.9655186028
 H         3.9020100215        2.5946170191       -3.3005672668
 H         6.8432703913        0.9738092486       -5.2410125463
 H         5.9561016664        2.5102198136       -4.8205460788
 H         7.1385854567        1.8231189898       -3.7755798818
 H         2.8395612192       -1.5810767592       -6.1076592412
 H         3.2463238845       -1.1539551324       -7.8305643893
 H         4.9648088759       -5.6693661304       -4.9019303645
 H         4.7334973828       -4.0219981148       -4.4647383238
 H         3.6467968627       -3.2953613828       -9.4277370489
 H         2.2211755170       -3.3901006749       -8.4043743869
 H         2.9177076882       -4.8916214269       -9.0099656769
 H         5.0229086173       -5.5971037772       -8.2144624193
 H         5.8428585252       -4.1097111570       -8.5102648970
 H         5.9669669427       -4.7838229009       -6.9550088895
 H         3.9191494806       -5.9803585506       -2.9862928441
 H         2.5473500392       -6.0454927040       -4.3004051673
 H        -0.6016328429       -3.2912786033       -3.3263978631
 H        -1.5530418080       -4.1533214680       -2.0585702206
 H        -0.3401220071       -5.9204691240       -3.1961894782
 H         0.0910410261       -6.6567926033       -1.6918632091
 H         1.2533429033       -6.6964842434       -2.9974469830
 H         2.7926886762       -6.0675093929       -0.9765915160
 H         2.4700414213       -4.4527042578       -0.2286026435
 H         1.4138245655       -5.7108167078        0.0102820280
 H        -2.3928546249       -1.8933658195       -2.3712359522
 H        -1.7615422295       -2.1228795985       -0.7274784803
 H         0.1559072194        3.1631152817        0.2865088036
 H        -0.6715585712        1.7999862045        1.2933728907
 H        -1.1269191540        2.6872470532       -2.2022223784
 H        -1.7691788425        1.3732719973       -3.3031142765
 H        -0.1086658546        1.4553620577       -3.0448163386
 H        -3.0373897240        1.2193864507       -0.8016704590
 H        -2.8475862047       -0.4606602504       -0.5067445640
 H        -2.0725341825        0.6965744775        0.5187030765
 H         1.9197545956        1.1839978093        1.7617594601
 H         1.1323824376        2.3009264789        2.7401583715
 H         0.9475031443        4.0327739753        4.1848959704
 H         1.4707987690        5.6439115333        4.4936723833
 H         3.3654170032        5.8552178089        3.4559024269
 H         4.4501487729        4.9808445639        2.2134755726
 H         3.6727652179        4.1332146188        3.5578951423
 H         3.4660515962        4.8596877180        0.1205910535
 H         1.7747273287        5.4820923775       -0.0755235865
 H         3.0768839105        6.4156456604        0.6614252502
 H        -0.3893618297        6.0885288069        5.3488684176
 H        -1.1095227365        6.2952591671        3.7373371282
 H        -2.9834541184        1.9555663218        5.3064262452
 H        -3.9287969064        2.6216264470        6.6525369890
 H        -2.0750217359        5.8461009085        6.6397849933
 H        -2.4918074102        4.1713089786        7.0089528464
 H        -3.6376141906        5.6255837117        7.2118626207
 H        -3.8661254492        5.9703331997        3.3982387593
 H        -4.3664629498        6.7770042322        4.8123354215
 H        -2.6774634635        6.8486465766        4.3613604856
 H        -5.3708101664        1.3569940208        4.3693408053
 H        -5.9893122869        1.6289801658        5.9315025076
 H        -6.7606584835       -2.0634038047        3.7564383759
 H        -8.3863198432       -2.1355261199        4.3768472438
 H        -4.7795260555       -2.6233842784        6.7644073719
 H        -5.3489904011       -2.6543884833        5.0393340106
 H        -6.3922310456       -3.1559469434        6.3660992103
 H        -6.9129901556        0.4186848952        7.8533469257
 H        -7.0638996753       -1.2367533510        8.3406050464
 H        -5.4930556659       -0.6057843634        8.4023679423
 H        -8.5063233967       -1.5151441730        2.2458335720
 H        -8.9555783446       -0.0192932676        3.0563755340
 H        -8.3061085249        1.8221772639       -1.5782112521
 H        -9.4878592057        0.6747596911       -1.9623856058
 H        -9.8475755647        1.8807682409       -0.6933894511
 H        -8.6517437551        2.2859240804        2.0459909848
 H        -7.6971484221        3.0052710709        0.7951929113
 H        -6.9715870465        2.5457159547        2.2194523154
 H        -6.4085180363        1.8447711140       -0.7003382479
 H        -5.3378488590        1.0351698470        0.4203356186
 H        -6.0922867766        0.1447779137       -0.8191833294
 Na        2.5557640915       -0.8968219661       -2.0500476003
