155

 C         6.9683331305       -1.5900912746       -3.0238859907
 C         5.5862935101       -0.8314195066       -2.8584997631
 C         5.2504250339        0.4645317500       -3.6997030484
 C         4.0595038493        0.1045378537       -4.6765253820
 C         4.2469354842        0.3136629599       -6.1412874896
 C         4.7060756470        1.5567788713       -2.7466461346
 C         6.5343561654        1.0388364251       -4.3652597997
 O         4.8168503616       -1.3200150235       -1.9869154792
 O         2.9891845123       -0.3507069807       -4.2674469821
 C         3.7700611917       -0.9792187290       -7.0139708429
 C         4.8448184716       -2.1286911115       -6.9675005315
 C         4.2799747009       -3.6069266037       -7.4194124105
 C         3.4504736885       -4.3308703632       -6.2215539235
 C         4.2078440797       -4.9077453784       -4.9528724562
 O         6.0015157531       -1.9485176300       -6.6753149032
 O         2.3022511993       -4.6279441264       -6.3257672536
 C         3.3810193699       -3.3925680670       -8.7074323748
 C         5.5038457887       -4.5453965130       -7.7123476711
 C         3.3471021886       -5.5335098014       -3.8805651668
 C         2.7493970846       -4.4498837187       -2.9207283121
 C         1.5159329028       -4.8948185991       -1.9205867325
 C         0.8273976091       -3.5602829782       -1.4567328026
 C        -0.6543105461       -3.3776271518       -1.9918479087
 C         0.7389529112       -6.0328080513       -2.5487692228
 C         2.2756356290       -5.3512215177       -0.4937947422
 O         3.3577359046       -3.3858758787       -2.8484861727
 O         1.3221178997       -2.7610591959       -0.6639640865
 C        -1.1276390110       -2.0525821689       -1.5197037788
 C        -0.4499877930       -0.8689096971       -2.0739692710
 C        -0.8134695172        0.5477861782       -1.4683731104
 C         0.5332635042        1.0826513467       -0.6378599717
 C         0.3727051702        2.2867512602        0.2813721420
 O         0.2254301985       -0.9669202307       -3.0883915263
 O         1.6795270444        0.7742827139       -0.9393902956
 C        -0.8883591970        1.4851179116       -2.7044264601
 C        -2.1724481705        0.5503737756       -0.6933028096
 C         1.2516495962        2.1824959473        1.5906288158
 C         2.4287691056        3.2088652106        1.5145820337
 C         2.2322387130        4.7155561187        1.8497695156
 C         0.8080188795        5.0583663329        2.2827327014
 C         0.3817487835        4.9756282393        3.8512027910
 C         3.4285588089        5.0370280311        2.8958338790
 C         2.4772641979        5.4326316745        0.4618821091
 O         3.4868567069        2.8345897248        1.0609004819
 O         0.0631495822        5.4576528360        1.4224068423
 C        -1.0651450786        5.4031235925        4.0243575680
 C        -1.9117460459        4.5492752928        5.0854195776
 C        -3.3636546784        4.9207299345        5.3439535004
 C        -4.2340154878        3.7049693263        4.9483897842
 C        -3.9492499156        2.1957978627        5.3564388461
 O        -1.4525378878        3.4518843898        5.3964258543
 O        -5.2126282083        3.9562567677        4.2872048738
 C        -3.5468298577        5.0826096814        6.9305358199
 C        -3.6892256273        6.2470804518        4.5029405367
 C        -5.1809998273        1.3592147685        5.4540515997
 C        -4.9816117075        0.0251736592        6.1180198978
 C        -6.1503115013       -0.9751772416        6.2526064268
 C        -7.3049188929       -0.6186519358        5.2523216345
 C        -7.5179794643       -1.4540245343        4.0393429450
 C        -5.5302030184       -2.3830492253        6.1834305421
 C        -6.6429243154       -0.7393958830        7.7054788643
 O        -3.8861005304       -0.3346720008        6.5510627248
 O        -7.8441687553        0.4834730563        5.4588360578
 C        -8.1546386875       -0.6401289022        2.8738686596
 C        -7.1581421449       -0.1949624890        1.7899016532
 C        -7.6376052693        0.8328477332        0.7252909163
 C        -9.0150592144        0.3744043206        0.0413546569
 C        -9.6285994469        1.3986501473       -0.8596747810
 O        -6.0442508365       -0.6472252730        1.7091290541
 O        -9.4743905374       -0.7148063478        0.2248945575
 C        -7.8937647921        2.2483988742        1.3375936434
 C        -6.5219804270        0.9193576693       -0.3378248459
 H         7.9850151663       -1.0777659031       -2.8090082638
 H         7.0430284786       -2.4757053506       -2.4468819229
 H         7.0018023414       -1.8975107385       -4.0949949228
 H         3.5981982767        1.1662511067       -6.5080993505
 H         5.2550979307        0.5791677131       -6.3994761547
 H         5.5969645588        1.9941639465       -2.3583719061
 H         4.0452222576        1.0149155866       -1.9986972197
 H         4.0144281556        2.2626744673       -3.2522966328
 H         6.7693143749        0.5668622399       -5.2838333504
 H         6.5491689664        2.1012942769       -4.7737020900
 H         7.3219379195        0.9866003387       -3.6658684775
 H         2.9520584184       -1.3194798943       -6.4247263296
 H         3.6912599205       -0.7417957714       -8.0201802286
 H         5.0134018509       -5.5814509445       -5.3234910701
 H         4.7893094940       -4.1400429268       -4.4664600409
 H         3.8321536576       -2.7812192451       -9.4702399040
 H         2.5030872911       -2.8866686205       -8.4431938983
 H         3.1109756595       -4.3721996805       -9.1547963873
 H         5.0838417454       -5.4997494527       -7.6690400171
 H         5.8709560396       -4.2383882878       -8.6769267759
 H         6.3115759908       -4.2818964010       -7.0045908494
 H         3.9498984984       -6.2398766002       -3.1740441853
 H         2.5198962912       -6.1297566355       -4.4044335012
 H        -0.6465408938       -3.3506332157       -3.0684352316
 H        -1.3269195479       -4.1091533998       -1.5481238727
 H         0.5629261478       -5.8538180403       -3.6586521363
 H        -0.3002487949       -6.2648728433       -2.0889051860
 H         1.2795966166       -6.9457887681       -2.5865423633
 H         2.9249652207       -6.1838900420       -0.6147466631
 H         2.8523743860       -4.4873578688       -0.1183869908
 H         1.5367579068       -5.7214389447        0.2079168020
 H        -2.1673510079       -1.9292002271       -1.8509150955
 H        -1.1138070446       -1.9707702873       -0.4596805776
 H         0.8552363649        3.0733614020       -0.4374752916
 H        -0.6948518334        2.4454256102        0.4366818201
 H        -1.0140287593        2.4788046490       -2.5769593588
 H        -1.8071777543        1.1958191652       -3.1732470116
 H        -0.1054615849        1.2592707676       -3.4194953493
 H        -2.1627362615        1.5098109917       -0.2017079679
 H        -2.9117765024        0.5917298896       -1.4431542892
 H        -2.4233656986       -0.1618837059        0.0405161625
 H         1.6993163485        1.1976061591        1.6565697929
 H         0.6089944947        2.3261005496        2.4972907139
 H         0.5921509072        4.0196745199        4.3324413190
 H         1.0076422431        5.7492871136        4.2530178323
 H         3.3819258382        6.0844247931        2.9717074837
 H         4.3492070642        4.6728648932        2.4624222455
 H         3.4311533462        4.5415143715        3.7758814491
 H         3.5369491592        5.3371904930        0.1157744428
 H         1.7720495479        4.8811807954       -0.2269790774
 H         2.3620294209        6.4664956265        0.4632252731
 H        -1.2924289667        6.4257378920        4.4071264435
 H        -1.6224790025        5.5134209860        3.0777305297
 H        -3.2340232066        1.8998218213        4.4937013894
 H        -3.4610294623        2.1309333748        6.3232914304
 H        -3.3792093279        6.1847314101        7.0305454838
 H        -2.9014799361        4.3603984493        7.4955684236
 H        -4.5916113094        4.8296237088        7.1714132635
 H        -3.3556845023        6.0093184349        3.5051465539
 H        -4.8343063777        6.4142595564        4.5387023403
 H        -3.2464707531        7.1365240693        4.9113098868
 H        -5.6259396322        1.1482943558        4.4452401264
 H        -5.9990980281        1.9115888420        5.8853298737
 H        -6.5654964643       -1.9371913552        3.7122660125
 H        -8.1821061496       -2.2749524009        4.3378224991
 H        -4.7142252093       -2.4410905608        6.8517944263
 H        -4.9629029025       -2.5175099899        5.2431261067
 H        -6.1747237384       -3.1996472935        6.2174524430
 H        -6.7900221468        0.3225369909        7.9404235679
 H        -7.5748855121       -1.2607465834        7.9266418169
 H        -5.8685558868       -0.8900173958        8.4043391775
 H        -9.0174395764       -1.1145173424        2.3065502546
 H        -8.6551520114        0.2877783718        3.4104028336
 H        -9.0903663288        2.3165608438       -0.6885822083
 H        -9.5135807140        1.1157598526       -2.0100429062
 H       -10.6572878775        1.5809761576       -0.6564101477
 H        -8.8116444337        2.3628930927        1.9175406414
 H        -8.0880335151        3.1218659204        0.6355409947
 H        -7.1382946267        2.6053166403        1.9866205925
 H        -6.9212936502        1.4650300092       -1.1796472366
 H        -5.5216715178        1.4085114286       -0.1125458430
 H        -6.1564762675       -0.0610191934       -0.7430209427
 Na        2.5162904102       -1.2143028772       -2.1857141223
