155

 C         7.1754785380       -1.5760903706       -2.7108972508
 C         5.7703921962       -0.9913316302       -2.6142250554
 C         5.4670894252        0.2495819350       -3.5706453845
 C         4.3242385690       -0.1598905136       -4.6456150920
 C         4.4594184485        0.2963891692       -6.0298629612
 C         4.9345814282        1.4494483346       -2.7282545836
 C         6.6810095502        0.7699936733       -4.2874824906
 O         4.9344076033       -1.3138784033       -1.7803112997
 O         3.3313683083       -0.7051763678       -4.3005145898
 C         3.8376589647       -0.8569832137       -6.9604804207
 C         4.7927977066       -2.0698486243       -6.8392592515
 C         4.5267882636       -3.4478008232       -7.4405813695
 C         3.7109210730       -4.1388658503       -6.2289861165
 C         4.4103301878       -4.8531387722       -5.1246720673
 O         5.7693301179       -1.9512639613       -6.1510373357
 O         2.5360786871       -4.0021566859       -6.2088432321
 C         3.7071460154       -3.3780387835       -8.7754146851
 C         5.8326789280       -4.1640160754       -7.8351460223
 C         3.3930351202       -5.5552908721       -4.1991592403
 C         2.8394557823       -4.4354047967       -3.1333335706
 C         1.8187313761       -5.0014069659       -1.9530782061
 C         1.1420689981       -3.6439450166       -1.3305312329
 C        -0.3282150885       -3.3608538835       -1.7680896392
 C         0.8004459945       -6.0380107884       -2.5106519867
 C         2.8404037963       -5.4944166569       -0.9364163845
 O         3.2724953216       -3.3284715345       -2.9820578319
 O         1.6878066775       -2.9753846255       -0.5147054218
 C        -0.8374112060       -2.0258110611       -1.3048429635
 C        -0.4256826141       -0.8522670590       -2.2209828982
 C        -0.6770521740        0.5708176595       -1.6597635124
 C         0.5236735553        1.0365973237       -0.8377867118
 C         0.5236345747        2.3977676416       -0.2407554326
 O         0.1160230334       -0.9911537694       -3.2742812398
 O         1.3182709096        0.2264967231       -0.5249898238
 C        -0.8551762656        1.4518757498       -2.9849689178
 C        -2.0764988300        0.7982674392       -0.9846294151
 C         1.0242613655        2.2601952984        1.2430433108
 C         2.3161013928        3.2594149230        1.4384043835
 C         2.1196488402        4.7736875973        1.8799274039
 C         0.5341271588        4.9846337299        2.0990794567
 C        -0.0034293594        4.8890886932        3.5485719998
 C         3.1188323204        4.9400336830        3.0415837260
 C         2.3753103499        5.7488228217        0.6370782488
 O         3.4386322440        2.8138355900        1.3146052520
 O        -0.1948039176        4.9323510544        1.1267650852
 C        -1.4448685318        5.3884972667        3.7111569840
 C        -2.0070391203        4.7689677878        5.0548580272
 C        -3.4120391782        4.9086745897        5.5258551457
 C        -4.2544975531        3.6550681513        5.0596759873
 C        -3.9471906664        2.1333802621        5.5720177390
 O        -1.1999600310        4.1899241743        5.7581417816
 O        -5.2588377011        3.8456274777        4.3014158562
 C        -3.5663294620        4.9973796106        7.0785793025
 C        -4.0099531693        6.2166016312        4.8347914879
 C        -5.2532656000        1.3650896493        5.4364205091
 C        -5.1093402961       -0.0015839618        6.1581710593
 C        -6.2930310470       -1.0566492867        6.2992335469
 C        -7.3236188755       -0.6908702869        5.1309234091
 C        -7.2587986726       -1.4188590883        3.8696577926
 C        -5.6323698463       -2.4576618094        6.1389452523
 C        -6.9018088225       -0.7387439902        7.6681921338
 O        -4.0911037862       -0.2186957600        6.8097859167
 O        -8.1039406399        0.2199786340        5.3559946097
 C        -8.1110243218       -0.7243110701        2.7714268693
 C        -7.2873734592       -0.1682867134        1.6008788338
 C        -7.9484505300        0.8700094071        0.5785565655
 C        -9.3442013042        0.4231579289        0.1188180942
 C       -10.0716405535        1.4008866390       -0.7149167824
 O        -6.0698035897       -0.4254423311        1.5182036424
 O        -9.7854598814       -0.6820684300        0.3996247484
 C        -8.1014035066        2.1655512139        1.4570985599
 C        -6.9659889187        1.0564810270       -0.6216317547
 H         8.0503173287       -0.9749575490       -2.2460605094
 H         7.1521182960       -2.4552268179       -2.1288601553
 H         7.4463943675       -1.8604243080       -3.7215822584
 H         3.8290817893        1.2414253764       -6.2107723499
 H         5.4634888726        0.4017685321       -6.4373337864
 H         5.5315171386        1.5353989210       -1.8326285938
 H         3.9104412208        1.3915790471       -2.6413663569
 H         5.0437985984        2.2917050189       -3.3696583925
 H         7.0824675752        0.1622208454       -5.0621416953
 H         6.3676242963        1.6967870527       -4.8614839755
 H         7.4053162315        1.0525455427       -3.6099572274
 H         2.8830498502       -1.1499554654       -6.4828331208
 H         3.9443493768       -0.5309446701       -7.9941149369
 H         5.2334136379       -5.5237195068       -5.4750064673
 H         4.9588165925       -4.0976484857       -4.6259674202
 H         4.2698555226       -2.8599907703       -9.5138772375
 H         2.7911963275       -2.8099104033       -8.6537010915
 H         3.4365408624       -4.3532478220       -9.1507411489
 H         5.4862514358       -5.2187771229       -8.0078846798
 H         5.9985729260       -3.7211029355       -8.8561140854
 H         6.6140908296       -4.0112858881       -7.0300670936
 H         3.7954875752       -6.5480892173       -3.8289218557
 H         2.4114528159       -5.7475077636       -4.8456464606
 H        -0.5340543161       -3.4569061300       -2.8310235149
 H        -0.8603580332       -4.0996848097       -1.1427423868
 H         0.3376214686       -5.7297035049       -3.4321152159
 H         0.0442304400       -6.3417205222       -1.7486195258
 H         1.3169792143       -6.9559012547       -2.6376739309
 H         3.5910362403       -6.2633572452       -1.2274098398
 H         3.5062920345       -4.6525907345       -0.8554991674
 H         2.3291821962       -5.9019651819       -0.0165895244
 H        -1.9361625432       -2.0633287185       -1.4097594035
 H        -0.6454954707       -1.9417119166       -0.2800401205
 H         1.1166758876        3.1318917312       -0.8867643317
 H        -0.4762788593        2.7809994380       -0.2926382535
 H        -0.8298471282        2.4919186098       -2.8078172345
 H        -1.7441112931        1.2446086182       -3.4891710397
 H         0.0049633821        1.2100438056       -3.6097225488
 H        -2.2926140881        1.8344063383       -0.9305698456
 H        -2.8768784897        0.2250298129       -1.5013735329
 H        -2.0332334827        0.3766243435        0.0409605940
 H         1.4043831038        1.3136285642        1.5261929837
 H         0.2269656198        2.7025067984        1.9145233296
 H         0.0844020571        3.7891293285        3.6754898203
 H         0.6602438394        5.4641314709        4.2065180628
 H         3.1614623383        6.0176622795        3.2610400435
 H         4.1325264324        4.6150864030        2.7131847351
 H         2.8297018013        4.3391685670        3.8670835913
 H         3.3533292899        5.6236530458        0.0834258482
 H         1.5145427351        5.6377726055       -0.1041158960
 H         2.2233788766        6.7837367806        0.9441751356
 H        -1.7219602981        6.4462254857        3.5343978094
 H        -2.1404733549        5.0368869183        2.9399800962
 H        -3.1567700706        1.5681911693        4.9530973839
 H        -3.5341245868        2.1770431902        6.6211180877
 H        -2.8465753568        5.7964411914        7.2884907485
 H        -3.2553488769        4.0878050016        7.5959953565
 H        -4.5954845468        5.1860414100        7.2377414254
 H        -3.9206927755        6.0692904375        3.7392185090
 H        -5.0282720143        6.3191457547        5.2487896548
 H        -3.3910917404        7.0574648202        5.0857485280
 H        -5.5046669207        1.2865104841        4.3048368628
 H        -6.0624158228        2.0517375546        5.8274976942
 H        -6.2128641033       -1.4683831552        3.5215277106
 H        -7.5394316960       -2.4274176482        4.0932287503
 H        -5.1439141532       -2.8351519651        7.0327261983
 H        -4.8637651491       -2.3925841814        5.2983394974
 H        -6.2961593618       -3.2120881353        5.8035952723
 H        -7.2624550056        0.2686934467        7.8805144092
 H        -7.7130952788       -1.4463544637        7.7415835219
 H        -6.1941154065       -0.8719750917        8.4608866023
 H        -9.0989123257       -1.2870791789        2.5154776429
 H        -8.6138494314        0.2644392513        3.1626790048
 H        -9.6885341119        2.3415218678       -0.3862643538
 H        -9.9988811091        1.1326008174       -1.7847331153
 H       -11.1737592676        1.4409063855       -0.5169519275
 H        -8.9136601846        2.2637258336        2.2328239491
 H        -8.0515731555        3.1782220368        0.9715260001
 H        -7.2623489481        2.1700995365        2.1000052055
 H        -7.1178980999        1.9550542312       -1.1335764440
 H        -5.8806021883        1.2812918388       -0.2664250545
 H        -6.9670739758        0.2535952260       -1.3397034506
 Na        2.6253224375       -1.1084874061       -2.1414342039
