155

 C         8.1524728684       -1.3253664136       -2.5012473221
 C         6.7128386107       -0.9655028898       -2.2644918603
 C         6.1199577931        0.4476630118       -2.6286841778
 C         5.2753723343        0.1296405193       -3.9795753868
 C         5.7654821988        0.5496298135       -5.3325859108
 C         5.1248418991        0.8807926470       -1.5693570899
 C         7.1339508278        1.5931579505       -2.9741554407
 O         5.9120189088       -1.7187692662       -1.6581073932
 O         4.1915218993       -0.4697068728       -3.8384770587
 C         5.2842940806       -0.5026156301       -6.3016830442
 C         6.0983246808       -1.7815517795       -6.2279674412
 C         5.5049824246       -2.9428500452       -7.1110366757
 C         4.2159406430       -3.5586967188       -6.4919512187
 C         4.2978483414       -4.8343966095       -5.5000751957
 O         7.1435515358       -1.8079498404       -5.5445648997
 O         3.1911022094       -3.2102968297       -6.9888627419
 C         5.1556244729       -2.4766959074       -8.5016293834
 C         6.5744933348       -4.0547538709       -7.2795199260
 C         2.9291820910       -5.2823298094       -4.9907039161
 C         2.9086206695       -4.5203583153       -3.6410730845
 C         2.2000969529       -5.1254132343       -2.3447361951
 C         1.5184865788       -4.0000844348       -1.5652356436
 C        -0.0168629133       -3.8059305379       -1.5781830614
 C         1.1427260148       -6.2511557786       -2.7719380087
 C         3.3703784480       -5.6717133875       -1.5236037198
 O         3.3883419949       -3.4074497350       -3.6940552786
 O         2.1740593827       -3.2047606899       -0.9262275837
 C        -0.3962771580       -2.3193749531       -1.3281365964
 C         0.2638990413       -1.4497105962       -2.3461336107
 C         0.2204539966        0.1080636928       -1.9790278198
 C         1.2392293942        0.4671545637       -0.7935557763
 C         0.8026642057        1.0728993819        0.6816557073
 O         0.8005688180       -1.9016103711       -3.3337319502
 O         2.4110420461        0.1174510363       -0.8652043581
 C         0.8519684836        0.9379830352       -3.1828812371
 C        -1.2370962956        0.6101252539       -1.6594868332
 C         1.6593205221        2.2528153800        0.9472100942
 C         1.1745198089        3.7191535762        0.3461739357
 C         0.6133176877        4.7749410250        1.3865740283
 C        -0.3209533299        4.1431848476        2.4323746420
 C        -0.6979656756        4.9826573210        3.7753512607
 C         1.7495593526        5.3233884574        2.3236948450
 C        -0.1708700785        5.9440238513        0.6737521623
 O         1.4189605138        4.0315244677       -0.7985440123
 O        -0.7653363461        3.0176848657        2.2409413216
 C        -2.1146805610        4.5722785012        4.1418894205
 C        -2.5286834710        4.9123568855        5.5914692869
 C        -4.1101627240        5.0014802951        5.8355779178
 C        -4.8146061097        3.6593587307        5.4956443795
 C        -5.6567001623        2.9964630673        6.6396370129
 O        -1.6486796587        5.0869375044        6.4120946137
 O        -4.7915898404        3.1478600702        4.4186611425
 C        -4.3988987103        5.4620421146        7.3090027066
 C        -4.6221990044        6.0836539190        4.9222203964
 C        -6.4253633012        1.8483394647        5.9886551265
 C        -5.5542273721        0.5653528513        5.8663042051
 C        -6.2912825338       -0.8888249166        5.6729660379
 C        -7.3035427749       -0.5963258977        4.4861021488
 C        -7.3075899208       -1.6095755136        3.3059571998
 C        -5.4193718145       -2.1061367282        5.4581832677
 C        -7.1376136016       -0.9331916791        7.0191330720
 O        -4.3653660601        0.6075423958        5.8781778847
 O        -8.0634566099        0.3758760099        4.5465904374
 C        -8.4835929393       -1.2467168222        2.3353545423
 C        -8.0697276223       -0.1076786905        1.4199014524
 C        -9.1341244716        0.9671875193        1.0734806866
 C       -10.2251721769        0.2482863478        0.0656281665
 C       -11.5694487994        0.8703289556       -0.1520983184
 O        -6.9164513999        0.0118521055        1.0160258931
 O        -9.9888395320       -0.8667259137       -0.3389514354
 C        -9.7947567250        1.5241791076        2.3499278975
 C        -8.5603953615        2.2748921446        0.2041956792
 H         8.7212415375       -0.8699195335       -1.6862531605
 H         8.3812002539       -2.3573864792       -2.4194722670
 H         8.5728043718       -0.9207903763       -3.4838593427
 H         5.3106651634        1.4768096777       -5.6139883628
 H         6.8516801420        0.5934304622       -5.4073108382
 H         4.1532945027        1.0767445183       -1.9482367476
 H         5.3515736711        1.7571838453       -1.0066448984
 H         4.9846243926        0.1260889846       -0.7859953640
 H         7.9960491633        1.1895980742       -3.4128098952
 H         6.6691792829        2.4031854259       -3.5424402226
 H         7.5104468695        2.0841648154       -2.1244482943
 H         4.2304220961       -0.6801811697       -6.1910067198
 H         5.2463076265       -0.0858430864       -7.3071839448
 H         4.6751038679       -5.6586251838       -6.1738850050
 H         5.0718394241       -4.7396792046       -4.7465038839
 H         5.9821331180       -1.8938888310       -8.9856188449
 H         4.1924133543       -2.0748275698       -8.5991015525
 H         5.1520031237       -3.3985895032       -9.1279614709
 H         6.1996334814       -5.0797194227       -7.3552765489
 H         7.4119805271       -3.9013639784       -8.0243698692
 H         7.2478870854       -4.1038836114       -6.3394151386
 H         2.8777155648       -6.4294662013       -5.0713208780
 H         2.2861491358       -4.9117004188       -5.7149460843
 H        -0.4936510417       -4.0476209286       -2.5019878316
 H        -0.3699577116       -4.3591221522       -0.7122755946
 H         0.2182776332       -5.8622455065       -3.2400683489
 H         0.7527351586       -6.6082030141       -1.8558975638
 H         1.6971793372       -6.9386370703       -3.3125442841
 H         4.2039770930       -6.0395763274       -2.1347865760
 H         3.9298764905       -4.7849218446       -1.0542118539
 H         3.0700202098       -6.2722587767       -0.6605691076
 H        -1.4661964024       -2.2521238160       -1.4892988413
 H        -0.1570515427       -2.0971667174       -0.3320839366
 H        -0.2077221913        1.4993642390        0.6210245676
 H         0.8605804101        0.2245147664        1.4026452670
 H         0.8331318173        2.0071930599       -3.1857145439
 H         0.4633186403        0.4792696735       -4.0948556671
 H         1.9414698820        0.5800238783       -3.1606233608
 H        -1.3671663022        1.7389823276       -1.4465621173
 H        -1.8168780042        0.3566731112       -2.5455445241
 H        -1.6554746282        0.1525241931       -0.7556902790
 H         2.6090083778        2.0231333618        0.4707371703
 H         1.7147043866        2.3283581448        2.0357940345
 H        -0.0435356412        4.7985866279        4.6712725501
 H        -0.7667556406        5.9573048704        3.3761175983
 H         1.5201771874        5.3766645508        3.3735745655
 H         2.1224619102        6.2483321450        1.9117236925
 H         2.4973830196        4.5344978146        2.4452945858
 H         0.4889663197        6.4513243989       -0.0042480388
 H        -0.9073964050        5.5922411501       -0.0084387621
 H        -0.6706872194        6.5987577673        1.3253692045
 H        -2.8586586447        5.1019247144        3.4966654252
 H        -2.2453650288        3.4788345793        4.0336159928
 H        -4.9692124371        2.4684500241        7.3901836903
 H        -6.3270573784        3.6850163653        7.1581775818
 H        -4.3554140675        6.5037454365        7.4424905164
 H        -3.8602202233        5.0393275356        8.1110098308
 H        -5.4377564602        5.2695823395        7.5839034959
 H        -4.3808339058        5.9835577980        3.8984306830
 H        -5.7271541276        5.9501968210        4.8988767450
 H        -4.3318187270        7.1328214736        5.2428563408
 H        -6.8660470705        1.9804719743        5.0016138940
 H        -7.2974666411        1.5652868909        6.6674849378
 H        -6.2813410921       -1.6532853947        2.8658498972
 H        -7.3344122479       -2.5807445877        3.7279208883
 H        -4.7171884385       -2.1619494391        6.3005429669
 H        -4.8841075461       -2.1491373665        4.5449174955
 H        -6.1238350902       -2.9855737043        5.5574781174
 H        -7.8335976006       -0.0892452736        6.9097266303
 H        -7.7161380574       -1.8713822092        7.1350614979
 H        -6.4697989356       -0.7777331947        7.9129126507
 H        -8.6608355205       -2.0825704835        1.6546797736
 H        -9.3937749135       -0.8690606913        2.8799791402
 H       -12.1327736983        0.5124145357        0.6960279235
 H       -11.4953038070        2.0070096882       -0.2340611787
 H       -12.0402911357        0.6156834225       -1.0994238093
 H       -10.3863505523        0.8030156870        2.8276090211
 H       -10.2806138407        2.4144589316        2.0008357421
 H        -8.9822024555        1.8771505361        3.0423486457
 H        -9.2710381800        2.7183170292       -0.5011484421
 H        -8.1870443334        2.9232513148        0.9655795065
 H        -7.7279432483        1.8796626642       -0.4256081720
 Na        3.5024329380       -1.5736575800       -2.1471818711
