155

 C         8.2814653819       -1.8743486685       -2.1948688676
 C         6.9930554328       -1.0939016457       -1.9381054450
 C         6.8748202550        0.3450141000       -2.6785639983
 C         6.0507409589        0.0524717512       -3.9064480676
 C         6.3806906437        0.7916784899       -5.2272459861
 C         6.1185431650        1.3389158573       -1.7473905017
 C         8.2632603331        1.0263711386       -2.8899866311
 O         6.0705065585       -1.6430556672       -1.3717936498
 O         4.9910597052       -0.5494743201       -3.7982658685
 C         5.8155270239       -0.0527398898       -6.4180922660
 C         6.6016734491       -1.4711030537       -6.2918643186
 C         6.1788657756       -2.7054492158       -7.1971832711
 C         4.8940863555       -3.4603587896       -6.4758045170
 C         5.2115004735       -4.9320578991       -5.7659419132
 O         7.3903574381       -1.5300444505       -5.3924109409
 O         3.7263019316       -3.1375490406       -6.5255805149
 C         5.6198871442       -2.1808239262       -8.5654627411
 C         7.4481162036       -3.4983687458       -7.3590676391
 C         4.0505719845       -5.5369609577       -4.9534469136
 C         3.6304143874       -4.6757638368       -3.7543634977
 C         2.5606379393       -5.4447334331       -2.7743356898
 C         1.6723352336       -4.1820281755       -2.1441896300
 C         0.2264263395       -3.7835436493       -2.5518469931
 C         1.6401441010       -6.4235166096       -3.6482910120
 C         3.2056651982       -6.1900650282       -1.5934408297
 O         4.1055859600       -3.5829584573       -3.5612533663
 O         2.2475949910       -3.4653282539       -1.3460022762
 C        -0.0742168259       -2.5263819370       -1.8268583097
 C         0.7087681503       -1.3200962584       -2.4221570503
 C         0.4181156780        0.1815604154       -1.7582040432
 C         1.3728154605        0.1343757069       -0.4443331921
 C         0.9397352479        0.8814622878        0.7257663959
 O         1.4944939420       -1.4891550164       -3.3158052795
 O         2.4816964750       -0.4580416612       -0.5412947627
 C         1.0227096047        1.1096417946       -2.8148697519
 C        -1.0417408518        0.5012285961       -1.5511986235
 C         1.4186901560        2.3618299385        0.9448398663
 C         0.2937605717        3.3980807647        0.4941639711
 C        -0.3591745299        4.4504836342        1.4055290059
 C        -1.1744024256        3.9534381720        2.6973836222
 C        -2.1526298222        4.8782884583        3.4069129858
 C         0.7758519396        5.1503361040        2.1174132454
 C        -1.3034490324        5.3276990980        0.5627357462
 O        -0.1964085771        3.3241109435       -0.6022743657
 O        -0.8333048531        2.9538706220        3.2252215013
 C        -3.0370599813        4.0928661361        4.3535923981
 C        -3.1720969551        4.6863521574        5.7379689468
 C        -4.6388973572        5.3575892689        6.2328243076
 C        -5.6863853624        4.3592577201        5.7230331284
 C        -5.7685846350        3.0436143930        6.5685520147
 O        -2.2989139663        4.8455354739        6.5553165985
 O        -6.3808824202        4.5289773264        4.7237273735
 C        -4.7933942518        5.6937612477        7.7082772875
 C        -4.7629754276        6.6533194524        5.3487128783
 C        -6.4267788057        1.9014401343        5.9167550354
 C        -5.4995215673        0.7177345332        5.6168214358
 C        -6.0178572723       -0.7436774754        5.1859523987
 C        -7.4335967507       -0.5308196642        4.5910992795
 C        -7.7121707462       -1.2072668896        3.2649516833
 C        -4.9804918668       -1.4534865993        4.2461775826
 C        -6.1646184741       -1.5254545917        6.5700801866
 O        -4.2822711285        0.7725200233        5.9143185559
 O        -8.3002955435        0.0617138715        5.2028788399
 C        -8.9756693668       -0.8037304941        2.6795154948
 C        -8.7621243375        0.5593432169        1.8666144170
 C        -9.8918887670        1.0660930980        0.9876407289
 C       -10.2238780461       -0.1046349173       -0.0423498088
 C       -11.7079593772       -0.2478659402       -0.5750632696
 O        -7.6814461104        1.0704714677        1.8543813722
 O        -9.3247714592       -0.8353569961       -0.4731791636
 C       -11.1618190014        1.6050199762        1.7680574184
 C        -9.4175695012        2.1801337879        0.0115374940
 H         8.3811992963       -2.6305433448       -1.3967597507
 H         8.3194895341       -2.3027462117       -3.2101186135
 H         9.1226031912       -1.3014300018       -2.0698283706
 H         6.0152466186        1.8327678822       -5.0757833514
 H         7.4988289864        0.9944746877       -5.2889492330
 H         5.5135632156        2.0164586736       -2.4079587404
 H         6.7199377003        2.1513850768       -1.2513758841
 H         5.5425061878        0.9292118888       -0.8982852403
 H         8.8756172120        0.2796393182       -3.4522206427
 H         8.1874493476        1.9957736604       -3.4581099170
 H         8.6171911908        1.2558025581       -1.8523013688
 H         4.7378705517       -0.0790365453       -6.1350054704
 H         6.1408474670        0.4919823015       -7.3393581776
 H         5.6997650307       -5.5368356637       -6.5196419788
 H         5.9896114186       -4.7045696990       -5.0045138119
 H         6.3262484042       -1.6766546676       -9.1821316843
 H         4.8011899746       -1.4920049222       -8.3081714038
 H         5.1835379275       -3.0505850432       -9.0894694814
 H         7.3701058833       -4.5037499348       -7.8395950371
 H         8.0729115176       -2.8767210945       -7.9832652498
 H         7.9326802270       -3.6057125346       -6.4165994045
 H         4.2089256671       -6.6316334843       -4.7843485182
 H         3.2044602831       -5.5111492561       -5.6844887900
 H         0.2989732245       -3.6568364486       -3.6447882920
 H        -0.4540412977       -4.6501659113       -2.5366574138
 H         1.4573972944       -6.1416413457       -4.6974671060
 H         0.6817961482       -6.7600593873       -3.0996312468
 H         2.1366697572       -7.3875664225       -3.7913559969
 H         3.6835810142       -7.1511772882       -1.8560940349
 H         4.0074374808       -5.6251653527       -1.1391464970
 H         2.4411285044       -6.4814570133       -0.7617850051
 H        -1.1289074081       -2.1812292426       -1.7905896271
 H         0.1112572345       -2.7449365355       -0.7504812174
 H        -0.0759118956        0.7007054672        0.8934192956
 H         1.4225866403        0.3277552355        1.5661439202
 H         1.0178078066        2.0781247100       -2.4080552087
 H         0.3297696320        1.0903285439       -3.6385047741
 H         1.9876815753        0.9089534787       -3.1025943334
 H        -1.1098790548        1.5041084839       -1.2676404914
 H        -1.6402294666        0.2400641440       -2.4692985774
 H        -1.4774602023       -0.1636313931       -0.7280733661
 H         2.3524165977        2.6267501570        0.3577477390
 H         1.8728885673        2.3788996069        1.8699929191
 H        -1.5982142160        5.7038556631        3.7892105627
 H        -2.6547602809        5.4798207777        2.6939720884
 H         0.3493536122        5.8751545967        2.7706901426
 H         1.4321507441        5.8332552886        1.5640044213
 H         1.3576103328        4.4451893617        2.6131604429
 H        -0.9892095513        5.2545244042       -0.5071274596
 H        -2.3671329885        4.9668506798        0.6448544408
 H        -1.3920273814        6.3581212856        0.9761557211
 H        -3.9887881052        3.8966140180        3.8492990547
 H        -2.5888541554        3.0583497233        4.4165032225
 H        -4.8445275734        2.8275547636        7.1057845629
 H        -6.5151455452        3.2953147550        7.3609116038
 H        -3.9512057771        6.2613970961        8.1312312214
 H        -5.0189477409        4.8451661408        8.3381039532
 H        -5.6987747220        6.2099263810        7.8344812040
 H        -4.5314847571        6.4537338731        4.2805086429
 H        -5.7591092301        7.1664922345        5.4268061601
 H        -4.0126619296        7.3546505833        5.5217835728
 H        -6.6929562746        2.2233076908        4.9264361809
 H        -7.2593747109        1.4978847854        6.4664687558
 H        -6.9367554317       -0.8830254995        2.5037974522
 H        -7.7190667632       -2.2321878904        3.5354164401
 H        -3.9898410875       -1.3851170561        4.6615610311
 H        -4.9753170896       -0.8039905222        3.3500310185
 H        -5.2407002984       -2.4108884709        3.7863345966
 H        -7.1078441011       -1.3080903131        7.0692804302
 H        -6.1546865489       -2.5485270512        6.2912118590
 H        -5.4772378930       -1.1332264376        7.2302989323
 H        -9.5389373029       -1.5312612089        2.0431841720
 H        -9.7064198011       -0.5533923955        3.4726609101
 H       -12.4421982625       -0.5264008240        0.1919296560
 H       -12.0278087218        0.6810756330       -0.9398923150
 H       -11.7046965219       -1.0526192163       -1.2533833071
 H       -11.8847612141        0.8295765029        2.0776156254
 H       -11.6017492820        2.2490088749        0.9074715008
 H       -10.9384041961        2.2809180538        2.5431724500
 H       -10.2594160342        2.3097565989       -0.6518325362
 H        -9.5004907103        3.1720471096        0.5839827779
 H        -8.4638956891        1.9283926859       -0.4743069375
 Na        3.6792573369       -1.7964081344       -2.2302431422
