155

 C         8.5212511591       -1.9185908039       -1.8760551853
 C         7.0483239656       -1.3648052427       -2.0449646549
 C         6.8800779493        0.2100836741       -2.5200615687
 C         5.9328275835        0.1787208807       -3.7539341618
 C         6.5519148123        0.5385981109       -5.0690264639
 C         6.2098385063        0.9010006820       -1.3374841893
 C         8.3801264437        0.6501453456       -2.7636028561
 O         6.0762861243       -2.0230635570       -1.8180991078
 O         4.7697946045       -0.0885483936       -3.6296893006
 C         6.0324234443       -0.3242106943       -6.2489160732
 C         6.7109144896       -1.6777700263       -6.3018661621
 C         6.6439594827       -2.5689846582       -7.5395927952
 C         5.3900855091       -3.6275294847       -6.7305806208
 C         5.9512685737       -4.5043127583       -5.5440448170
 O         7.2815789328       -2.0599491321       -5.1903282050
 O         4.2266404151       -3.5644756785       -7.1364794406
 C         5.9587758572       -2.0811439058       -8.8032928944
 C         7.9781387712       -3.3070179402       -7.8379257054
 C         4.7586682076       -5.1757283510       -4.7491682055
 C         3.9132836249       -4.3948000098       -3.7006625650
 C         2.8537134724       -5.1634267722       -2.9034402723
 C         1.9673839460       -4.1347607238       -2.2836984890
 C         0.6146056466       -3.7655429230       -3.0571062711
 C         2.0727287902       -6.0205753721       -3.9764320992
 C         3.2850354302       -6.1002765759       -1.7258943311
 O         4.1361364813       -3.2005270441       -3.4667284721
 O         2.3889885709       -3.4826852079       -1.3695691197
 C        -0.0784935730       -2.4841588765       -2.3332724843
 C         0.9111363785       -1.2437292106       -2.4494431619
 C         0.4676324582        0.0673787320       -1.7529973921
 C         1.3603353213        0.3855186817       -0.4851782721
 C         0.6859082105        0.7633742972        1.0118856535
 O         1.9494936965       -1.3635563994       -3.1478436169
 O         2.5391316639        0.2853135755       -0.5727563194
 C         0.7617266932        1.1500569173       -2.7799978245
 C        -1.0872772640        0.1013491569       -1.5025135108
 C         1.0928836321        2.1679451466        1.3696282683
 C         0.0464434856        3.0662314451        0.6811975043
 C        -0.7045571792        4.1186503711        1.4829035236
 C        -1.5300942306        3.4850609937        2.7080687735
 C        -2.2118060902        4.6027073586        3.4865301666
 C         0.3402165075        5.1289396245        2.0053963072
 C        -1.6293233205        4.8850972961        0.4744262545
 O        -0.0933512730        2.7925484927       -0.5129407239
 O        -1.6966731167        2.3302435532        2.9868232151
 C        -3.0670428673        4.0509571321        4.6162364800
 C        -3.3695550561        4.9163461378        5.9178468230
 C        -4.8275822354        5.3968189278        6.2075865493
 C        -5.9843066311        4.3766933507        5.9769374849
 C        -5.8138951442        3.0122779981        6.8188882086
 O        -2.5079261247        5.1955829513        6.7185021342
 O        -6.9393711293        4.6505600940        5.2238500701
 C        -4.9285287764        5.9146854452        7.6923424287
 C        -5.0074839398        6.5986758577        5.1945723467
 C        -6.5374109058        1.8449382385        6.0794183048
 C        -5.4595943407        0.8836900916        5.4024464440
 C        -5.9163027689       -0.6364121894        5.1700896334
 C        -7.4356595894       -0.7549574874        4.7450006797
 C        -7.5929041469       -0.5732914609        3.1425949092
 C        -4.9275523654       -1.3383081924        4.2267896647
 C        -5.7802119110       -1.2712134412        6.6647678052
 O        -4.3934040115        1.3563713904        5.0493072789
 O        -8.3415742382       -0.8045845512        5.5646896327
 C        -9.1091656393       -0.3616768507        2.7552414092
 C        -9.1127699799        0.9013122835        1.7868560717
 C       -10.2933247656        1.0417939044        0.7975532975
 C       -10.3215920973       -0.2024825930       -0.1515576618
 C       -11.5349700177       -0.3384229666       -1.2089324822
 O        -8.2913384984        1.7631068050        1.8207157108
 O        -9.3706513052       -0.9743619990       -0.1651836834
 C       -11.6005490852        1.2152273596        1.6715648185
 C        -9.9512774644        2.1811433303       -0.1521647346
 H         8.4530319421       -3.0422094253       -2.0286761723
 H         9.2353696566       -1.5681197714       -2.5798015112
 H         8.9685336473       -1.6830395321       -0.9209426855
 H         6.2912717496        1.6297112617       -5.2089275790
 H         7.6786134087        0.4702656824       -5.0073079358
 H         6.7172390976        1.9193472690       -1.1500663264
 H         6.2470788771        0.3755212079       -0.4420013268
 H         5.1715064729        1.2008575721       -1.5598851448
 H         8.8534992686        0.0763081664       -3.5554445614
 H         8.2951680047        1.8052736232       -2.8885673972
 H         8.9790848437        0.3762550366       -1.9070310284
 H         4.9653053040       -0.4560669234       -6.1828782649
 H         6.4208821726        0.2600692668       -7.0707487095
 H         6.5673917219       -5.3554097097       -5.9324846534
 H         6.4540337938       -3.7594018928       -4.9538039304
 H         6.6891446392       -1.4504971614       -9.3794781358
 H         5.0844048668       -1.5817885530       -8.5716915822
 H         5.6849386870       -2.9219918900       -9.4381451934
 H         7.8327578007       -4.1243268159       -8.5354642929
 H         8.6960102258       -2.6668590170       -8.2307085150
 H         8.2583797237       -3.6564064461       -6.9219829057
 H         5.1880920709       -6.1267101121       -4.3662895897
 H         4.0188760550       -5.4860615878       -5.4817475793
 H         0.8754599036       -3.6474526459       -4.1550907921
 H        -0.0704450879       -4.6514834298       -3.1229847379
 H         1.7877477812       -5.6559285427       -5.0111308962
 H         1.0526821217       -6.1429394499       -3.6204165310
 H         2.5443777460       -6.9727663976       -3.9948565574
 H         4.0199984075       -6.8469204386       -2.0054376847
 H         3.7929212417       -5.5241402379       -0.9572147582
 H         2.3652826383       -6.4969190570       -1.2807822422
 H        -0.9810679312       -2.1969512761       -2.9575134592
 H        -0.4724560933       -2.7460203950       -1.3217695721
 H        -0.4017150647        0.7539869978        1.0332939712
 H         1.0606096552        0.0043728376        1.6525452560
 H         1.1047575336        2.0967641219       -2.2888634862
 H        -0.0751629025        1.4231889244       -3.3861714325
 H         1.5249815398        0.7915820336       -3.4132745676
 H        -1.3400561113        1.1201026567       -1.1795058117
 H        -1.6185881936       -0.0889907676       -2.4081817268
 H        -1.2793314941       -0.5285835683       -0.6677272631
 H         2.0406658464        2.3904946863        1.0073372461
 H         1.1647928454        2.3977289106        2.4675303891
 H        -1.4480664571        5.2926448907        3.9916874666
 H        -2.6887587908        5.3843024976        2.8435997203
 H         0.1545840569        5.5797995421        2.9672688232
 H         0.7023978632        5.7158199024        1.1721654559
 H         1.2403551771        4.5687678748        2.3135399354
 H        -1.1580258320        5.0530457203       -0.5587345879
 H        -2.5449373616        4.2046399215        0.2945581089
 H        -1.9253755136        5.8192248376        0.9076581190
 H        -3.9876834986        3.7539238790        4.0641090917
 H        -2.5625367776        3.1808639441        5.0652336073
 H        -4.6283180265        2.8239868272        6.8157957530
 H        -6.2413604874        2.9862355941        7.8511727038
 H        -3.9874978742        6.4019309011        7.9076986124
 H        -4.9136794368        4.9926175444        8.3259022561
 H        -5.7665137149        6.6490690827        7.9393139915
 H        -5.2703817611        6.1915093451        4.2700120906
 H        -5.7663686876        7.3625051164        5.4401846969
 H        -4.0488510291        7.1708841990        5.0951677128
 H        -7.2742411936        2.1952251525        5.2829317861
 H        -7.0552658128        1.1479394540        6.8240807733
 H        -7.0467157548        0.2808133264        2.9215084142
 H        -7.3240385012       -1.4144476257        2.5321765053
 H        -3.9503643087       -1.4161175073        4.7380013037
 H        -4.7788358363       -0.9250990576        3.2574964906
 H        -5.2099356881       -2.4174604573        4.2558818392
 H        -6.6088619025       -0.9393890785        7.3110164724
 H        -5.6815766208       -2.3469331070        6.5582407980
 H        -4.8079204556       -0.9052720607        7.0079883156
 H        -9.6866269947       -1.1945536576        2.2879301007
 H        -9.5737763730        0.0141926778        3.7750098831
 H       -12.4206011167       -0.4870474834       -0.7137152390
 H       -11.5788265817        0.5566629790       -1.8118088425
 H       -11.3106080775       -1.2254401915       -1.8390460733
 H       -12.0233070923        0.2331356306        1.8759489560
 H       -12.4090326133        1.8811216611        1.3240905994
 H       -11.2899174499        1.6077865568        2.6969764043
 H       -10.4713717868        2.1658629063       -1.0555685741
 H       -10.0533791672        3.1263455302        0.4044390097
 H        -8.8683845377        2.0675594032       -0.4540716159
 Na        3.8446400193       -1.4383207433       -1.6527957120
