155

 C         8.4406680854       -2.2448334719       -1.9377315544
 C         7.0858280348       -1.5345403527       -1.9574395745
 C         6.9782500949        0.1271237644       -2.3665768278
 C         6.0837756098        0.2631135881       -3.6060094569
 C         6.5703447269        0.6364197401       -5.0688856815
 C         6.1858621978        0.6836561694       -1.1040984643
 C         8.2734137364        0.9021828960       -2.5079576771
 O         6.0686744358       -2.1307848852       -1.7300758167
 O         4.8873280007        0.0287590464       -3.5263690737
 C         5.9626328516       -0.3201183966       -6.1351245875
 C         6.8045575306       -1.5742993930       -6.2192511529
 C         6.6032363060       -2.6445616130       -7.3446359139
 C         5.4467842363       -3.7366013035       -6.8987077113
 C         6.0133620347       -4.4463319815       -5.5855103703
 O         7.5706988984       -1.7881900474       -5.3685962094
 O         4.3672590315       -3.8631103830       -7.4657971400
 C         6.1358492263       -1.9335547724       -8.7146508322
 C         7.9405480161       -3.4885964277       -7.4589647825
 C         5.0451086445       -5.3702869763       -4.7644583054
 C         4.2069270205       -4.3976710193       -3.8265277657
 C         2.9464854828       -5.0269923765       -2.9982370467
 C         1.9787503240       -3.8723756858       -2.4422326604
 C         0.6173361078       -3.5862736018       -2.9873640983
 C         2.1654677569       -6.0248174056       -3.8811981181
 C         3.5136673468       -5.8313538322       -1.8054931371
 O         4.5703689075       -3.3421106702       -3.5506551813
 O         2.4281940481       -3.2460680021       -1.4965484407
 C        -0.0464320039       -2.4976549362       -2.3461359368
 C         0.7701577508       -1.2152357004       -2.4953080997
 C         0.4274796704        0.1824414843       -1.7577965847
 C         1.4332128526        0.2626477544       -0.5290406626
 C         0.8945848036        0.3630563680        0.9026649852
 O         1.7869436990       -1.1563816545       -3.0915026302
 O         2.6600801808        0.1302787118       -0.7039892384
 C         0.7384573425        1.2571196346       -2.8365667054
 C        -1.0134089858        0.1135097778       -1.3346220693
 C         0.7940335837        1.8520322074        1.4436460410
 C        -0.1718284399        2.8743405931        0.6645785509
 C        -0.7359480485        4.1285455770        1.5377474418
 C        -1.6943643750        3.5565818753        2.6824138093
 C        -2.1879199308        4.4767780896        3.8112323834
 C         0.4564644642        5.0668639704        1.9398199057
 C        -1.7659421550        4.7534502012        0.5567205437
 O        -0.2851290097        2.8238617964       -0.5492516261
 O        -1.9581649828        2.3537469859        2.6261217873
 C        -3.3261752752        3.9257011298        4.7447273802
 C        -3.3901845883        4.9012644658        5.9265189100
 C        -4.9044970077        5.3591333822        6.2142037108
 C        -6.0533562991        4.2641673240        6.0778246113
 C        -5.8895370818        3.0166148893        6.9557285702
 O        -2.3956882137        5.2561168545        6.5557832819
 O        -7.0051873733        4.4520490606        5.3568232846
 C        -5.1140166335        6.0008666307        7.6018786163
 C        -5.1689454515        6.5268445559        5.1510438057
 C        -6.4255894775        1.7666182127        6.2673311887
 C        -5.4645562535        0.9886590103        5.3597537462
 C        -5.8083153106       -0.5531429520        5.3194084452
 C        -7.3926136201       -0.6478699693        4.7040276433
 C        -7.5410116245       -0.2511046976        3.2377800173
 C        -4.9253106807       -1.2882152425        4.3016128325
 C        -5.7788539799       -1.1533941475        6.7699137380
 O        -4.6386571230        1.3930246463        4.6022889231
 O        -8.2570317972       -0.9570731121        5.4832016432
 C        -8.9999001252       -0.1708151752        2.8053970122
 C        -9.2118263425        1.0176867454        1.8204968786
 C       -10.3994900700        1.0486342501        0.7510732933
 C       -10.3445203637       -0.2674074862       -0.2159292408
 C       -11.4125317653       -0.4388400636       -1.2689161872
 O        -8.3579480975        1.9003975920        1.7867599582
 O        -9.4913994208       -1.0868109303       -0.0612273522
 C       -11.7954167907        1.0297672806        1.3853847655
 C       -10.2986366593        2.4118262161       -0.0299142303
 H         8.4782914272       -3.0703801736       -1.2885373653
 H         8.6599693103       -2.6206564390       -2.9646195020
 H         9.2713369619       -1.4916032431       -1.7853349593
 H         6.1571562359        1.5996798174       -5.2718526106
 H         7.6228642044        0.6103875910       -5.1051324281
 H         6.2986280338        1.7026553860       -1.0000652211
 H         6.6239855670        0.1358642059       -0.2319193252
 H         5.1181654982        0.6223678332       -1.2366555482
 H         8.9470054085        0.2911441570       -3.1289203530
 H         8.0545925965        1.7756736250       -2.9573149204
 H         8.7215675607        1.0172731298       -1.5136205014
 H         4.9027897193       -0.5218099463       -5.8496570942
 H         5.9846097487        0.3070306202       -7.0524415681
 H         6.7325605638       -5.1269217145       -5.9965692698
 H         6.3899222190       -3.5966516105       -4.9599436077
 H         6.5939181562       -1.0285789983       -8.9637261923
 H         5.0148397729       -1.8442632290       -8.6126790875
 H         6.2593987205       -2.6217535954       -9.5215592224
 H         7.5649467086       -4.4113621557       -7.7943116613
 H         8.6015505102       -3.0655290176       -8.2446758422
 H         8.4791954721       -3.5534519005       -6.4656588744
 H         5.5897138754       -6.0858957890       -4.1864314808
 H         4.4172258067       -6.0087447795       -5.4453622375
 H         0.9587288778       -3.2935161205       -3.9738377354
 H         0.0659458402       -4.5100658908       -3.1317266838
 H         1.5267265708       -5.5563535197       -4.5460582720
 H         1.5044481441       -6.6920279461       -3.3320548856
 H         2.8575302416       -6.7291820252       -4.4008493347
 H         4.2547604130       -6.5633729966       -2.1296370285
 H         3.9167735566       -5.1819303208       -1.0129217509
 H         2.7211505530       -6.3912946019       -1.3999760330
 H        -1.0629743659       -2.3315982579       -2.5870092743
 H         0.0265465002       -2.7258977443       -1.2849309354
 H        -0.0844858241       -0.1710077608        1.0944195245
 H         1.6983933237       -0.1594852388        1.5279544116
 H         0.3325568518        2.1890974918       -2.4259058533
 H         0.1840781446        1.0924700920       -3.7928753768
 H         1.8575096895        1.3235807313       -3.1038622722
 H        -1.3233129993        1.1063701858       -0.9198620062
 H        -1.6214227736       -0.0415336453       -2.2087579550
 H        -1.1414543450       -0.6363676158       -0.5828265522
 H         1.7898190077        2.3640582574        1.1685473780
 H         0.7086537605        1.9374024954        2.5162566222
 H        -1.4278818202        4.6017847233        4.5785368599
 H        -2.2935928243        5.5252926165        3.4762476774
 H         0.1236747950        5.5742049456        2.8694882470
 H         0.8258449438        5.6422009094        1.0911552070
 H         1.3379944129        4.5199816807        2.3330491244
 H        -1.2402675794        5.1849079862       -0.2310414834
 H        -2.3554110682        3.9782796469        0.2152098703
 H        -2.3394890687        5.5735641138        1.0293113916
 H        -4.2633614968        3.9621487612        4.2263996489
 H        -3.0246463128        2.9219901629        5.0480433387
 H        -4.9076252793        2.9431986479        7.1548714133
 H        -6.4547715556        3.1285986044        7.8648485902
 H        -4.4571915422        6.8963950829        7.8048772096
 H        -4.8230802601        5.2288280682        8.3433816342
 H        -6.1206230801        6.3996277772        7.7104157378
 H        -4.9021004521        6.2136636732        4.0969416178
 H        -6.1607014815        6.8799229991        5.1623854430
 H        -4.6289461048        7.3769404644        5.5279500945
 H        -7.1236028058        2.0692843840        5.4755889067
 H        -6.9290446489        1.0739285853        6.8913058832
 H        -7.0921042891        0.8116929872        3.1654243670
 H        -7.0101554458       -0.9173790891        2.5442419684
 H        -3.8822395890       -1.3727391602        4.5588024652
 H        -4.9296338525       -0.5065935400        3.5018371576
 H        -5.1938174553       -2.2672801799        4.0208341094
 H        -6.8329724273       -1.3143664743        7.0684420005
 H        -5.1911186783       -2.0860092956        6.7938874540
 H        -5.1021838701       -0.5358542486        7.4193168541
 H        -9.3671161740       -0.9705413463        2.2101189284
 H        -9.5076382512       -0.0209228772        3.6615123867
 H       -12.2423897134       -1.0392530920       -0.7689409245
 H       -11.7752987465        0.5680180559       -1.5878777436
 H       -10.9968655577       -0.9492966981       -2.1615444405
 H       -12.1923430409        0.1246559430        1.8797107538
 H       -12.4579145899        1.2438284347        0.5762089422
 H       -11.9172459219        1.8039306044        2.1140329008
 H       -11.0079505100        2.3017674434       -0.9230078176
 H       -10.5589021860        3.2280495239        0.6123446632
 H        -9.3698788455        2.7062522773       -0.4279046708
 Na        3.9031039023       -1.3103023440       -1.8774732586
