155

 C         8.1512244762       -2.2359575638       -1.3944620646
 C         6.8956374507       -1.4142319445       -1.7855259254
 C         7.0496926415        0.1622177793       -2.0289082280
 C         6.3060119256        0.2838519244       -3.4377068084
 C         7.1697768613        0.4419060383       -4.6569928978
 C         6.1838257464        0.8538900842       -0.9337162974
 C         8.4664227829        0.6060900607       -1.9276747658
 O         5.8269204969       -1.9980031890       -1.8174178735
 O         5.0774098490        0.3318330811       -3.5308784810
 C         6.6912770379       -0.1736596488       -5.9691454495
 C         7.3983052849       -1.5864400966       -6.1138952253
 C         7.0504395935       -2.5374438725       -7.2962850987
 C         6.0239527858       -3.4759575460       -6.6885565893
 C         6.4248171198       -4.0462484400       -5.3610395173
 O         8.2161176162       -1.9561906278       -5.3199521639
 O         5.0397842482       -3.7779928078       -7.3838205685
 C         6.5188675837       -1.8553060901       -8.5902928873
 C         8.2788325263       -3.3909819675       -7.6817663129
 C         5.3774494507       -5.0306013602       -4.7388222312
 C         4.3305570585       -4.2434164452       -3.9861028848
 C         3.5132539978       -5.1603335819       -2.8726427662
 C         2.5070171435       -4.0714829070       -2.4265951964
 C         1.1452112969       -3.8522949350       -3.1107607493
 C         2.9279649124       -6.3689029909       -3.6449071346
 C         4.4361773202       -5.6078854566       -1.7607036314
 O         4.0514958424       -3.0497877786       -4.2180075439
 O         2.7591372905       -3.3312426055       -1.4523195547
 C         0.2644546298       -2.5903044641       -2.6442714544
 C         0.8478696276       -1.2546119292       -2.8379491255
 C         0.2457205216        0.0415807450       -2.2080686014
 C         0.8979244328        0.0967582296       -0.7749765598
 C         0.2236467084        0.3148123797        0.5946835738
 O         1.7619049723       -1.1687416258       -3.5998217179
 O         2.1205545041       -0.1387883233       -0.6277106976
 C         0.8022147605        1.2794645983       -2.9291784442
 C        -1.3104995019        0.0567792407       -2.1684448468
 C         0.6263381095        1.6413370207        1.2037532530
 C        -0.3062131441        2.8144775939        0.6890065125
 C        -0.7550525372        3.9416462879        1.7639544326
 C        -1.8080203698        3.1397804776        2.7494521643
 C        -2.0344926160        3.8060193816        4.2312912550
 C         0.5358052332        4.4919760165        2.5083629326
 C        -1.4938562536        5.0329567449        0.9490837948
 O        -0.6053971470        2.9282033463       -0.4718175474
 O        -2.2249616093        2.0643869712        2.4001370118
 C        -3.3942766363        4.6087334645        4.2396695328
 C        -3.7671990671        5.0030155126        5.6724800200
 C        -5.2313336106        5.3712897786        6.1718698923
 C        -6.0605381907        4.0765747192        6.3498406812
 C        -5.5731073117        3.0375521516        7.3108554787
 O        -2.8839829894        5.0833469266        6.4723338214
 O        -7.0422421448        3.9372235645        5.6351599315
 C        -5.1527520683        6.2211831196        7.5013535944
 C        -6.0442169194        6.2626866473        5.1445139764
 C        -5.9817076571        1.5954651211        7.0492846127
 C        -5.8358799747        1.1686574201        5.6437984162
 C        -6.0917437728       -0.3240561203        5.3108981790
 C        -7.4763527034       -0.4097896598        4.4765092270
 C        -7.6798892461        0.5000915494        3.2105806524
 C        -4.9636913256       -0.8311119169        4.3831495964
 C        -6.2996111679       -1.3084342230        6.5446793783
 O        -5.3288106212        1.8412884186        4.7698187247
 O        -8.2714381023       -1.3108751091        4.7578695065
 C        -9.2481373750        0.5978052210        3.0432498318
 C        -9.5489806519        1.2950897092        1.6450356149
 C       -10.8468262271        0.8254652398        0.7242754451
 C       -10.3684359246       -0.2991601184       -0.1793693992
 C       -10.9168741025       -0.4623245704       -1.5807307313
 O        -8.8955195567        2.1977043363        1.2104252092
 O        -9.5474449768       -1.1064317002        0.2578853465
 C       -12.0288502841        0.2042891244        1.5305713026
 C       -11.4167367232        2.0927196616        0.0561463266
 H         8.9476648590       -1.6537587261       -0.8259489855
 H         7.8900769936       -3.1294281603       -0.8578331737
 H         8.7053630888       -2.4880062379       -2.3093686962
 H         7.3137543612        1.5436995445       -4.8230995469
 H         8.1132615830        0.0093445826       -4.3317239309
 H         6.7735543269        1.7350380416       -0.5596882454
 H         6.1119155456        0.2228133207       -0.1395865089
 H         5.1490952177        0.9887562499       -1.2773133665
 H         9.1226356002        0.0542230818       -2.6383975188
 H         8.6198620147        1.7468336793       -2.0185740899
 H         8.8781194231        0.3425005481       -0.9497377775
 H         5.6433705138       -0.2686050291       -6.1786847411
 H         6.9679983392        0.4404204838       -6.7928795871
 H         7.3881298235       -4.5152532377       -5.3672082707
 H         6.3986510706       -3.1788894929       -4.6414857244
 H         7.1924853904       -1.0593641048       -9.0192904705
 H         5.5185680575       -1.4274108544       -8.5650642348
 H         6.4292962727       -2.6769444080       -9.2966461311
 H         7.7654556234       -4.2917575030       -8.0859381540
 H         8.9071679636       -3.0262817745       -8.4558316467
 H         8.7711338820       -3.6200387601       -6.7977881078
 H         5.8331081042       -5.5772836013       -3.9797444465
 H         4.8901286930       -5.8565823812       -5.3157188590
 H         1.4034281167       -3.8390756964       -4.1945568587
 H         0.5859058143       -4.7622677866       -2.8058628784
 H         2.5926880061       -5.9964354370       -4.6565441400
 H         2.1324570502       -6.8707346306       -3.1158930507
 H         3.7527801189       -7.0971121008       -3.9185627775
 H         4.9902896351       -6.4893378130       -2.2025162236
 H         5.1421660623       -4.7761032235       -1.4865425752
 H         3.8730021965       -5.9135526913       -0.8826919328
 H        -0.7516086071       -2.6363480541       -3.0672590866
 H         0.2347963059       -2.7237717414       -1.5207997983
 H        -0.8908294188        0.3282960599        0.7271118774
 H         0.6162592018       -0.4435329745        1.2035450525
 H         0.7157502453        1.1361180663       -4.0025789767
 H         1.8457338292        1.4046488845       -2.7453060937
 H         0.2287357430        2.1456415522       -2.7279728981
 H        -1.5931990261        1.0077821198       -1.6439094015
 H        -1.6790590791        0.2406094740       -3.1761290898
 H        -1.9079159638       -0.7771228250       -1.7931679033
 H         1.6558164543        1.8982749278        1.0239295669
 H         0.4421153704        1.5248928269        2.2625013256
 H        -2.2356358161        3.1113867887        5.0224612662
 H        -1.3287255001        4.6846405057        4.3405864636
 H         0.2581727117        5.1396454214        3.3241607633
 H         1.0675548356        5.1120162901        1.8823693681
 H         1.0141002838        3.5860520923        2.8840205084
 H        -0.8697512621        5.6038655899        0.1899498362
 H        -2.3585239550        4.5123114752        0.4117872313
 H        -1.9301113522        5.6597840808        1.7092151878
 H        -3.1900031587        5.6202637918        3.8326532079
 H        -4.0868749617        4.1457722782        3.5178456240
 H        -4.4458694974        3.0872971886        7.4194544136
 H        -5.8851422485        3.2574089079        8.3787545930
 H        -4.6673124076        7.1348635724        7.2535805626
 H        -4.5335910571        5.6122064339        8.1325963647
 H        -6.1367431807        6.2085419759        7.9872658184
 H        -6.2799378868        5.7255468038        4.2484670980
 H        -6.9456525927        6.4655507793        5.6213649995
 H        -5.4390611467        7.1421253830        4.8094203749
 H        -7.0505350619        1.2641629405        7.3856152101
 H        -5.3762769815        0.9638055874        7.7800165508
 H        -7.1473455257        1.4243275377        3.4108507421
 H        -7.0697762027        0.1407064217        2.4363050321
 H        -3.9795250421       -0.9611973810        4.8615364307
 H        -4.7901779763       -0.1707938483        3.5209316064
 H        -5.3168624375       -1.7104340407        3.9018351122
 H        -7.2277007917       -1.1308626370        7.0529095247
 H        -6.2287512862       -2.3590848447        6.3731219926
 H        -5.4946872758       -1.0056967789        7.2494897154
 H        -9.6715015173       -0.3941468611        3.1787197561
 H        -9.7300050775        1.2450313968        3.8265737708
 H       -10.2272661209       -0.9723236070       -2.1426832700
 H       -11.7274652745       -1.1442882745       -1.5081504830
 H       -11.2854749592        0.4631928925       -2.0859355019
 H       -11.7148349090       -0.6267994651        2.1984104404
 H       -12.8531453996       -0.1161800843        0.9886327714
 H       -12.5370500723        0.9799992485        2.1992216510
 H       -12.0423702581        1.7787461577       -0.8102059417
 H       -12.2087437367        2.5119734036        0.5980089920
 H       -10.6882388432        2.8346327249       -0.3055524815
 Na        3.6836498457       -1.1154354673       -2.2840746373
