155

 C         7.8638002854       -1.8442605807       -0.3652456840
 C         6.6739663533       -1.1319825968       -1.0550901234
 C         6.9771295949        0.1856200745       -1.6956733715
 C         6.7057770438        0.0526942882       -3.3286119304
 C         7.7628614775        0.5074117151       -4.4325900681
 C         5.7842456866        1.1493789118       -1.2693752871
 C         8.3439149324        0.7502892573       -1.3564492824
 O         5.5705705200       -1.5949943974       -0.8783982845
 O         5.6011452632       -0.3327376839       -3.6064519703
 C         7.3036168667       -0.0020755351       -5.7880171508
 C         8.0627454243       -1.2916544787       -6.1308027174
 C         7.4610234310       -2.2402385724       -7.2092419086
 C         6.2564337168       -3.0696309964       -6.5004611268
 C         6.6731059020       -4.1087830544       -5.4412678153
 O         9.1330273238       -1.5597449299       -5.5453718947
 O         5.1579016787       -2.7205490310       -6.6786842040
 C         6.8601314817       -1.5092852891       -8.4659550604
 C         8.5053358218       -3.2247603514       -7.7722035301
 C         5.4527982721       -4.8433298537       -4.8617987356
 C         4.6272650853       -4.0769349474       -3.8496124220
 C         3.7156149645       -4.8649524274       -2.8169123647
 C         2.4584617567       -3.9884355855       -2.4616743246
 C         1.1193105167       -4.0813658917       -3.2981620810
 C         3.2923836630       -6.2013810409       -3.1792372942
 C         4.6299659084       -4.8748934353       -1.5916208640
 O         4.7805181857       -2.9202076428       -3.8959526176
 O         2.4553184352       -3.1056228634       -1.6424767602
 C         0.0688864797       -3.0641799385       -2.9738969154
 C         0.7635149913       -1.6497546815       -3.2982777385
 C         0.1764209299       -0.2498076435       -2.7797215071
 C         0.9237581255       -0.0416789678       -1.3675193644
 C         0.0785835039        0.1861160658       -0.0803459801
 O         1.7502263652       -1.5956619732       -3.9354990858
 O         2.1483518582       -0.0280840217       -1.4430774132
 C         0.6845618458        0.9042352926       -3.7464393369
 C        -1.3737972960       -0.0520950692       -2.7003345892
 C         0.5748710322        1.4442379025        0.7842984827
 C        -0.3273682106        2.6375448688        0.6836011350
 C        -0.6302686840        3.3765935278        1.9951116942
 C        -1.8976254830        2.9468018110        2.7436718424
 C        -2.2429003851        3.5363144858        4.0529706882
 C         0.5588974335        3.4730889427        2.9489903419
 C        -0.9368735901        4.8912855061        1.5538747829
 O        -0.9097667208        2.9793881252       -0.3426406658
 O        -2.4988891794        1.9829914611        2.2766419935
 C        -3.5740048864        4.3721483530        4.2084864195
 C        -3.9767398635        4.7140005552        5.6076993971
 C        -5.5019606346        5.1099733338        5.9103721828
 C        -6.3888391962        4.0460049948        6.4929038864
 C        -5.7371541408        3.0106011512        7.3640407795
 O        -3.1198305708        4.7518208138        6.4798698817
 O        -7.5900682284        3.9533031748        6.3276713943
 C        -5.5947919728        6.3905294093        6.7701865281
 C        -6.2255840854        5.5302505428        4.5337720405
 C        -6.4319555005        1.6227397489        7.0130240347
 C        -5.8133389664        1.1578211592        5.7279858169
 C        -6.2297759081       -0.2230620176        5.0830648802
 C        -7.7578808227       -0.1080834686        4.7713398364
 C        -8.1437818969        0.9511202250        3.7499574139
 C        -5.4260877492       -0.4316952800        3.7914805688
 C        -5.9668347103       -1.3032847962        6.1743851358
 O        -5.0143772816        1.8609741110        5.0980576768
 O        -8.5443198406       -0.8650501044        5.2724504419
 C        -9.3760488573        0.4847021149        2.9800571387
 C        -9.7561320149        1.2888798743        1.7209602379
 C       -11.0399247429        0.6946950707        0.7221372925
 C       -10.3661903442       -0.2683033324       -0.2057404419
 C       -10.5859637579       -0.1886019945       -1.7170625897
 O        -9.0277507947        2.1713842238        1.3146572532
 O        -9.6869400703       -1.1918728935        0.2185742872
 C       -12.0415576418       -0.0710901620        1.6248438474
 C       -11.6825408111        1.9037592177        0.0504153101
 H         7.6333717535       -2.9087806336       -0.3798906680
 H         8.8170999938       -1.6969024868       -0.8216725261
 H         7.9835553547       -1.6105481336        0.6426575647
 H         7.7864000467        1.6603615991       -4.4163708415
 H         8.7679168428        0.2554979723       -4.0218990173
 H         6.1618289962        2.1837670844       -1.4361713328
 H         5.7067192417        0.9006392233       -0.1600722616
 H         4.8937335927        0.9973364582       -1.8949898527
 H         9.1743726493        0.3017047614       -1.9178260886
 H         8.5233450792        1.7579952507       -1.7211340834
 H         8.6166922359        0.8230926301       -0.3203752956
 H         6.2185334945       -0.2852957265       -5.8219428022
 H         7.3529043532        0.6920062328       -6.6501124543
 H         7.4262368440       -4.7964732495       -5.7898774529
 H         7.3239860017       -3.5791553160       -4.7108805004
 H         6.0895543354       -2.2070699842       -8.8662300054
 H         7.5392706082       -1.2462015841       -9.2102598056
 H         6.3071480137       -0.6133444353       -8.2592599660
 H         7.9330052122       -4.0435386725       -8.1875757945
 H         9.2569941427       -2.7614448686       -8.4435324096
 H         9.1134278469       -3.7028736069       -6.9227471728
 H         5.6776126494       -5.7997588408       -4.5170010238
 H         4.7195882336       -5.0360762119       -5.7433275407
 H         1.4398965053       -4.0160648130       -4.3575518286
 H         0.5766002883       -5.0311891303       -3.1595246211
 H         2.5636813239       -6.1241283140       -4.0217578860
 H         2.8244790381       -6.5685418032       -2.2864237230
 H         4.1245715774       -6.8548111706       -3.2651324200
 H         5.3599721759       -5.6331905483       -1.7187990448
 H         5.1224625384       -3.9570657713       -1.4844293299
 H         3.9636143186       -5.1394166582       -0.7321715464
 H        -0.8522963721       -3.2235581866       -3.5563029756
 H        -0.2545031969       -3.2561781085       -1.9326413085
 H        -0.9972945459        0.3711506650       -0.2406795735
 H         0.1577536978       -0.6859291614        0.5094673424
 H         1.0965365791        1.7232726799       -3.2013900115
 H        -0.1045151458        1.2490544358       -4.5129118403
 H         1.4983813950        0.5048328735       -4.3656659564
 H        -1.6262020532        0.9063079945       -2.4426458769
 H        -1.6583363655       -0.2275294121       -3.7713605576
 H        -2.0496771086       -0.7250075392       -2.1105386526
 H         1.5942960254        1.7820926014        0.5324373326
 H         0.6759258268        1.3387499497        1.8971818673
 H        -2.4059997375        2.6813815181        4.7034060394
 H        -1.3885847312        4.0506235862        4.5654097838
 H         0.2815615205        4.2529897326        3.6746474757
 H         1.4331744804        3.6110089426        2.3151164044
 H         0.7409318418        2.5616697359        3.5752128324
 H        -0.1270049694        5.4438469658        1.0936489235
 H        -1.7811957435        4.9032251442        0.8973575344
 H        -1.1912556414        5.3908066039        2.4459658939
 H        -3.4614976015        5.3229423972        3.6903619284
 H        -4.1943652687        3.8163935700        3.5128910778
 H        -4.6008914894        2.8934855795        7.1263381853
 H        -5.9129347905        3.2814724716        8.4315231760
 H        -5.2436746688        7.2056604140        6.1579072432
 H        -4.9769087556        6.2604798341        7.6763302991
 H        -6.6822165195        6.5850620740        6.8589583633
 H        -6.5036505146        4.6015292196        4.1714072837
 H        -7.0890943970        6.2357295519        4.7276032702
 H        -5.5424441102        6.0976354734        3.8703352182
 H        -7.4545531113        1.7727292161        6.7846256439
 H        -6.3302844672        0.9640515358        7.8893198431
 H        -8.4690012572        1.7809523022        4.3994318121
 H        -7.4836473108        1.3392894158        2.9805632779
 H        -4.4132387176       -0.8301130983        3.9785012169
 H        -5.3779979770        0.4238719889        3.1662389025
 H        -5.8344729214       -1.3539362432        3.3229355748
 H        -6.3083595006       -0.9880911478        7.1822243491
 H        -6.1472807288       -2.3407427646        5.8309815095
 H        -4.8437407220       -1.1720778317        6.2632455260
 H        -9.3566747089       -0.6090400279        2.5925481459
 H       -10.2830496764        0.4394466518        3.7219394690
 H       -10.7902192784       -1.2642997329       -2.0809261570
 H       -11.4672906000        0.4255188266       -1.9469033541
 H        -9.7163004531        0.0172835364       -2.3129018772
 H       -11.5819824430       -0.8993348975        2.0585606772
 H       -12.9378251072       -0.4399588056        1.1237436093
 H       -12.2337612692        0.5436890032        2.4992433214
 H       -12.4811560357        1.5624012702       -0.5379130266
 H       -11.9618630560        2.6873013758        0.7783644158
 H       -11.1013180745        2.5177075532       -0.7034266629
 Na        3.7945332982       -1.4004346420       -2.4901228936
