155

 C         7.6959210774       -0.7728809742        0.5458129959
 C         6.6556783275       -0.3255791837       -0.5345293746
 C         6.8309118868        1.0380054863       -1.3211729547
 C         6.6660222876        0.5964901306       -2.8585262255
 C         7.8960107042        0.2396595558       -3.5665158928
 C         5.5513260016        1.8728159866       -0.9397815186
 C         8.0416587215        1.8224748798       -0.9902800714
 O         5.5552428020       -0.9026541578       -0.6552155923
 O         5.5804178294        0.5129767189       -3.3603233641
 C         7.8345813631        0.0647334246       -5.0817682649
 C         8.0777761686       -1.4398788196       -5.4542138266
 C         7.6462402575       -2.0259756916       -6.8784264687
 C         6.3864915421       -2.8855528535       -6.5808106230
 C         6.5772369356       -4.2099813820       -5.8431959527
 O         8.5235483567       -2.1543311831       -4.5249195168
 O         5.2700434981       -2.5484218994       -6.9177394581
 C         7.4531110909       -0.8982271665       -7.9714869074
 C         8.8407032295       -2.9345663614       -7.2564811799
 C         5.1888668817       -4.6685483141       -5.1211754193
 C         5.0117816130       -4.0694968880       -3.6620972575
 C         3.9566967044       -4.9113144903       -2.8858701109
 C         2.6256962497       -3.9969362277       -2.8017822096
 C         1.4625550955       -4.1734041270       -3.6988353641
 C         3.6580704064       -6.2856203209       -3.4111996823
 C         4.4369715010       -5.0845563909       -1.4033572778
 O         5.5120999307       -3.0675327228       -3.2185123551
 O         2.7190876160       -3.1988492651       -1.8651389235
 C         0.4338752456       -3.0040370668       -3.5384693153
 C         1.0678272097       -1.5697428908       -3.6804433758
 C         0.2834599357       -0.2848478611       -3.3662605238
 C         0.6772072637        0.0032158873       -1.7777899581
 C        -0.6640743583        0.3537988067       -1.0130709208
 O         2.2343147469       -1.4400603822       -4.1637554872
 O         1.8072325945        0.1258565700       -1.4234831502
 C         0.6550786718        0.9556860975       -4.2083464980
 C        -1.1901444336       -0.5449399799       -3.5367781578
 C        -0.4114443789        0.7057919998        0.4414232894
 C        -0.3085252753        2.2202669268        0.5520751083
 C        -0.2698377948        2.8601886581        1.9720653157
 C        -1.6813347608        2.7726971787        2.5712778936
 C        -2.1252962328        3.5974402008        3.7542414348
 C         0.7783235816        2.1863748869        2.7893409575
 C         0.1119894108        4.3648984060        1.8850447445
 O        -0.2094630828        2.8831185552       -0.4809871421
 O        -2.4289778790        1.8271224080        2.3717553858
 C        -3.6292222510        4.0714116548        3.6761561780
 C        -4.1352269756        4.4139326007        5.0459004383
 C        -5.6550694631        4.9566131961        5.2633810176
 C        -6.6426078925        3.7981277947        5.7882493324
 C        -6.3232083965        3.1214001876        7.1944361880
 O        -3.5251609281        4.0407373540        5.9930327100
 O        -7.6319542918        3.5282950352        5.1397136728
 C        -5.5937690174        6.1028414317        6.3350779029
 C        -6.2656197485        5.4779826564        3.8992622160
 C        -6.4718015319        1.5225479208        7.0610956182
 C        -6.0267089200        0.9956614343        5.7173178024
 C        -6.3788601625       -0.4983423657        5.2213045580
 C        -7.8735581811       -0.1939598159        4.7252665544
 C        -8.0862730429        0.3957147479        3.3279232473
 C        -5.3535549726       -0.8752503628        4.1746917520
 C        -6.4690967515       -1.4681849419        6.4757627522
 O        -5.3049536383        1.7179226374        5.0483663411
 O        -8.7876814720       -0.4360623797        5.4609453371
 C        -9.6480783947        0.2062499907        2.9404018382
 C       -10.2248280538        1.3141134580        2.0708165927
 C       -11.1135967497        0.7900490226        0.9149488044
 C       -10.2498259100       -0.2792951587        0.0846314980
 C        -9.4622038490        0.2422151064       -1.0856477629
 O       -10.1481845052        2.5162627331        2.2149627225
 O       -10.1722506437       -1.4169890025        0.5573403682
 C       -12.3033045864        0.0648825192        1.6078274245
 C       -11.7749539419        2.0129309141        0.1574597941
 H         8.1752248070        0.0905225362        1.0394040675
 H         7.1259176145       -1.2282437103        1.3392230498
 H         8.3341708398       -1.5201853203        0.2111013652
 H         8.5241338568        1.1342317778       -3.3306877171
 H         8.2626363337       -0.7276384384       -3.0588118621
 H         6.0107307601        2.8860488464       -0.8268919628
 H         5.1237122227        1.5646678754        0.0548239266
 H         4.7661340864        1.7037233050       -1.6845474468
 H         8.9874379491        1.2400814643       -1.0626437846
 H         7.9934312707        2.7320416322       -1.6429809892
 H         8.0277061694        2.1313023812        0.0344031213
 H         6.9429048986        0.5882166898       -5.3280108664
 H         8.7329510248        0.6137793305       -5.3719897373
 H         6.9085597030       -4.9392039375       -6.6170081943
 H         7.3752374202       -4.0564556405       -5.1180668315
 H         6.4076275655       -0.4674779461       -8.0726825612
 H         7.8339001982       -1.2393537968       -8.8990610620
 H         8.0293939744       -0.0919477077       -7.6501922118
 H         8.6192627875       -3.7825197677       -7.9008212104
 H         9.6449812556       -2.3873006658       -7.7331704050
 H         9.3431958176       -3.3306198330       -6.3263407332
 H         5.1745088157       -5.7822795564       -4.9997593412
 H         4.5418818922       -4.1846264335       -5.7910221207
 H         1.6993350369       -4.1852915820       -4.7594743288
 H         1.0953143816       -5.2226936984       -3.6374506365
 H         3.1901319869       -6.3393218858       -4.3824982035
 H         2.9012553628       -6.7045294730       -2.8196375908
 H         4.6139203517       -6.8654272417       -3.3590580237
 H         5.3438763673       -5.6656368623       -1.5274492402
 H         4.5661977837       -4.2022429967       -0.8351078190
 H         3.7318249773       -5.6989959855       -0.8633856392
 H        -0.5012055117       -3.1573424325       -4.1155962773
 H         0.1629533747       -2.9380785972       -2.4477515205
 H        -1.0057840743        1.2857058934       -1.4046382112
 H        -1.3258476973       -0.4544603147       -1.1987701822
 H         1.7347782096        0.8229659090       -4.2834332212
 H         0.4237196409        1.8329840438       -3.4799265493
 H         0.0470238361        1.1069578068       -5.1015501070
 H        -1.8237169305        0.2105047848       -3.2987124003
 H        -1.4338217846       -0.8188736632       -4.5639171290
 H        -1.4037659823       -1.3626889614       -2.8189682948
 H         0.5820820553        0.2383348060        0.7341106246
 H        -1.2200772769        0.4066414378        1.1230522505
 H        -2.0381358009        2.8469965839        4.5737600372
 H        -1.4768925769        4.4540387012        4.0938856050
 H         1.2974556831        2.8843582318        3.5387278321
 H         1.6303257630        1.9577683554        2.1855613947
 H         0.4716846211        1.3090910640        3.4523857448
 H         1.1466865700        4.4376565861        1.5393401806
 H        -0.4141962427        4.8496272287        1.0306404589
 H        -0.0993362977        4.9294775318        2.7210657016
 H        -3.8687837902        4.8018980525        2.9088534904
 H        -4.2833803943        3.2249469267        3.5038568438
 H        -5.1913041473        3.3631567084        7.4118264883
 H        -6.9010151099        3.4702014228        8.0706107754
 H        -4.8510933240        6.8329208829        5.9361760657
 H        -5.3517064066        5.5520750341        7.2632824300
 H        -6.6239449065        6.5524057499        6.5832325992
 H        -5.7482109828        5.0470941139        3.0609449737
 H        -7.3300532044        5.3027171529        3.7453676053
 H        -6.0005767617        6.6157498964        3.7886573078
 H        -7.5346606550        1.2265702326        7.3529767248
 H        -5.9854025080        1.3348961005        8.0456740232
 H        -8.0104300477        1.4974961036        3.4058673849
 H        -7.3779026594        0.0396432854        2.5635393374
 H        -4.3433676299       -0.7709952993        4.6180089367
 H        -5.5026771261       -0.3811784063        3.1957186586
 H        -5.5392854689       -1.9291644724        3.9290520885
 H        -7.4250453005       -1.2820087940        7.0067009729
 H        -6.3974527237       -2.4979600981        6.1014935067
 H        -5.5292479965       -1.2874109706        7.1055097482
 H        -9.6205082195       -0.7976511928        2.5337835139
 H       -10.1312541841        0.2575363546        4.0297159933
 H        -8.9742581248       -0.7166383008       -1.4486007402
 H       -10.0163049704        0.6949654629       -1.9176678673
 H        -8.8498762185        1.1029515759       -0.7407307954
 H       -11.9571869485       -0.7276701191        2.2346339797
 H       -12.8516810483       -0.4124049340        0.8574394955
 H       -12.9188237423        0.8363252244        2.1663152363
 H       -12.2140549345        1.6572532212       -0.8445579396
 H       -12.6188657498        2.3965565022        0.6545551723
 H       -11.0597788116        2.8555470526       -0.1189565996
 Na        4.0034074656       -1.2098897291       -2.5353624187
