155

 C         7.3696601905       -0.4335667809        0.7904586606
 C         6.5212849368       -0.3292998991       -0.4256732715
 C         6.6071181607        1.0821113981       -1.2985930228
 C         6.6223682663        0.6115158535       -2.7247144840
 C         7.9368103626        0.5875637403       -3.5401906291
 C         5.3800895799        1.9805228068       -0.9772356367
 C         7.8742794877        1.8092588280       -0.9713010956
 O         5.7428486998       -1.1569748577       -0.7575262754
 O         5.6159677806        0.2143923685       -3.3053321175
 C         7.7104957410        0.0977405736       -5.0504844534
 C         8.0491736788       -1.3493580131       -5.2022774093
 C         7.7536685200       -1.9608428075       -6.7200204659
 C         6.4394110537       -2.8152061561       -6.5206389921
 C         6.6486480023       -4.1102916879       -5.6607551141
 O         8.2776240016       -2.1120104040       -4.3289634973
 O         5.4627658204       -2.4733239127       -7.1213189736
 C         7.4608520126       -0.8498920948       -7.7651913925
 C         8.9770981991       -2.7458544278       -7.0695592306
 C         5.3291800938       -4.6636303842       -5.1575844046
 C         4.9842398774       -4.0937428521       -3.6773145989
 C         3.9238105680       -4.8245927083       -2.7542993772
 C         2.6744636638       -3.8856047243       -2.6824607687
 C         1.5932005434       -4.1359482245       -3.7608263987
 C         3.5947638554       -6.2252292346       -3.3028174450
 C         4.5452053328       -5.0076141692       -1.3452787851
 O         5.2980542161       -2.9485566331       -3.4497767036
 O         2.6874244560       -2.9214924643       -1.9702713827
 C         0.5449214280       -3.0368571596       -3.7268832637
 C         1.2621088077       -1.6133225096       -4.0223614377
 C         0.4030270439       -0.3704202052       -3.5152422813
 C         0.5747095100       -0.1927491683       -1.9644458371
 C        -0.6913049693        0.2706852272       -1.1374900985
 O         2.3728720097       -1.4502039083       -4.3308232335
 O         1.6990564823       -0.2392776720       -1.4430892924
 C         0.9841881812        0.9250778295       -4.1643485901
 C        -1.0759923083       -0.5912524381       -3.9319803924
 C        -0.5396577635        0.7381198835        0.3239769000
 C        -0.1379526624        2.1975259814        0.5335531001
 C        -0.1492447759        2.8207728762        1.9855568148
 C        -1.6136725619        2.7113551940        2.5819728013
 C        -2.1459946755        3.7614718097        3.6155351908
 C         0.8600898007        1.9546553303        2.8721321627
 C         0.2861174180        4.2341859522        1.8241362274
 O         0.1614393953        2.9495074454       -0.3923836269
 O        -2.3575796083        1.8083613135        2.2808133506
 C        -3.6674099308        3.8023017115        3.7501396690
 C        -4.2310390892        4.3802827008        5.1167263555
 C        -5.6620348396        4.9640903639        5.1722199804
 C        -6.5909485474        3.8217352946        5.6150358111
 C        -6.2629758909        3.1047719258        6.9387806717
 O        -3.5890683912        4.3403950396        6.1670744539
 O        -7.5440686175        3.5151855954        4.9460188149
 C        -5.6820038956        6.0775307035        6.2963322624
 C        -6.1848505969        5.6155768335        3.8142261485
 C        -6.7469030665        1.6113581088        6.8029594847
 C        -6.0173620255        0.9554904980        5.7203391848
 C        -6.5569739795       -0.5064876301        5.3311161751
 C        -8.0097247031       -0.2603070287        4.8286730966
 C        -8.2933677263        0.5692476761        3.5742550243
 C        -5.6719369459       -1.1038575366        4.1786529213
 C        -6.5688454815       -1.4980855384        6.5283883173
 O        -5.1765085239        1.4679884058        5.0032542623
 O        -8.8850225674       -0.8779843825        5.4484967319
 C        -9.7151283221        0.2576585847        3.1332832505
 C       -10.2271223700        1.3366127087        2.1709709890
 C       -11.2261262171        0.7954259053        1.0787624909
 C       -10.3076448381       -0.1973896009        0.2083565262
 C        -9.2957731380        0.3882387525       -0.8458808784
 O        -9.8281887956        2.4982079415        2.1006731984
 O       -10.2924094129       -1.4073525050        0.4119093869
 C       -12.3613504442       -0.0946460790        1.6444364336
 C       -11.7432814921        1.8584054453        0.0831784516
 H         8.4549728733       -0.3323978047        0.4930138201
 H         7.1625342733        0.3514568043        1.5145072216
 H         7.2654803657       -1.4411050360        1.2339529363
 H         8.4395278071        1.5613425187       -3.5029023513
 H         8.5074277758       -0.2106626201       -3.0786445118
 H         5.5132825780        2.8621562463       -1.5899120153
 H         5.3951881671        2.2647840826        0.0179750837
 H         4.4702939139        1.3697198034       -1.0909551635
 H         8.7994109966        1.2062625436       -1.0868397155
 H         7.9718440535        2.6970121962       -1.6488897099
 H         7.8357583975        2.1447519340        0.0970638259
 H         6.6165366027        0.1887928012       -5.2422535551
 H         8.3752635914        0.7099878901       -5.6446356302
 H         7.0974850494       -4.8414577981       -6.3415920278
 H         7.2735669721       -3.9915524653       -4.7543669411
 H         6.4824872102       -0.5211742546       -7.6018140542
 H         7.6181176240       -1.2585726599       -8.7945482751
 H         8.1105141440        0.0722802104       -7.6757800481
 H         8.9111595520       -3.2962488164       -8.0719946480
 H         9.8755427075       -2.0790312961       -7.0954200216
 H         9.2130876717       -3.5058718308       -6.3367849852
 H         5.3586859610       -5.7398048172       -5.3180232076
 H         4.5290993740       -4.1029834864       -5.7402564394
 H         1.7698082877       -4.3034728527       -4.8468978252
 H         1.1439948660       -5.1002209338       -3.5330587792
 H         2.9705605333       -6.1782376741       -4.1972981371
 H         3.0039416059       -6.9018655284       -2.5974631225
 H         4.5286221116       -6.7452475885       -3.4521438141
 H         5.5149857960       -5.5266864802       -1.4863345970
 H         4.8887003911       -4.0105377042       -0.8960871923
 H         3.8114194720       -5.4499411941       -0.6712797318
 H        -0.1966629229       -3.2035507705       -4.5257423971
 H        -0.0083592480       -3.0282219870       -2.7839513106
 H        -1.0635752318        1.2023052531       -1.6141667390
 H        -1.4282376621       -0.5818463832       -1.2537986225
 H         1.7230669059        1.3315626861       -3.5373967102
 H         0.2049309403        1.5667909464       -4.3913617780
 H         1.3355722307        0.5818519224       -5.0839380627
 H        -1.6930115346        0.4056205995       -3.7573053910
 H        -1.1207692391       -0.8255592488       -5.0123107964
 H        -1.5933030285       -1.3435130673       -3.3387366370
 H         0.2639206710        0.1710033255        0.7053708349
 H        -1.4674212577        0.5537772767        0.8838097466
 H        -1.5536471066        3.3692408874        4.4779072684
 H        -1.7762066441        4.7589856241        3.3722261457
 H         0.8340252536        2.0939237369        3.9175879411
 H         1.9296832345        2.1885278885        2.5798485442
 H         0.7120079989        0.9184961517        2.7999189219
 H         1.1319254495        4.2463501645        1.1963506619
 H        -0.3891938882        4.8683111295        1.2905027054
 H         0.5674267705        4.7006710762        2.7985934084
 H        -4.0288417465        4.3817676460        2.8674170775
 H        -4.1340274103        2.7758921997        3.6400647857
 H        -5.2835845933        3.2421514980        7.1640912969
 H        -6.8239463190        3.6043309140        7.7325366758
 H        -4.9997938584        6.7997959978        5.8976741770
 H        -5.3494166619        5.6056705097        7.1897050976
 H        -6.6017397593        6.5355184337        6.4438886290
 H        -6.1296451696        5.0489369598        2.8529350960
 H        -7.2076532237        5.9648633658        3.9711377594
 H        -5.6080593810        6.4669801812        3.6561994483
 H        -7.8179043232        1.6396357168        6.7388772870
 H        -6.6444907640        1.1062106630        7.7600429603
 H        -8.3142858788        1.6394537387        3.8135305268
 H        -7.4830001431        0.3862776146        2.8497680463
 H        -4.8279558660       -1.4217721793        4.7571266047
 H        -5.3868748914       -0.3697532375        3.4266926221
 H        -6.0612333704       -1.9638973504        3.6410207359
 H        -7.2424815188       -1.1909310835        7.3671156364
 H        -6.7527210646       -2.4835293467        6.0627645445
 H        -5.5602066295       -1.5384822325        6.8979135104
 H        -9.6423932640       -0.7584352727        2.8611913561
 H       -10.1690109264        0.3841880333        4.0150237505
 H        -8.5400629332       -0.2343829772       -1.0878259019
 H        -9.8343006643        0.6405702783       -1.7438232362
 H        -9.1109949039        1.3769529280       -0.4796742796
 H       -11.9939447040       -1.0027014146        2.1906677507
 H       -12.9604621033       -0.4552054322        0.7677106731
 H       -12.8519161765        0.4898475507        2.3732388903
 H       -11.5941150891        1.6474958262       -0.9831339962
 H       -12.8297553270        2.0686926221        0.3619773662
 H       -11.2623036412        2.7882911653        0.2237505577
 Na        3.9472710561       -1.1240733292       -2.2936871021
