155

 C         6.8842942056       -0.1203403351        1.0855917482
 C         6.2016251005       -0.2003739427       -0.2683256577
 C         6.4315453086        1.0167339451       -1.1951804643
 C         6.4724317909        0.6096560104       -2.7226961343
 C         7.7354326979        1.0319967953       -3.5112227063
 C         5.0854184459        1.7699638148       -0.9415299340
 C         7.5035050061        2.0364896764       -0.6841668677
 O         5.4425817016       -1.1171505822       -0.4676478596
 O         5.5798631147       -0.0565634646       -3.2450219176
 C         7.6423391854        0.5627949897       -4.9820834366
 C         7.9411334516       -0.9052124633       -5.0621195196
 C         7.8264351585       -1.7684632945       -6.4275809562
 C         6.5883831726       -2.8768272986       -6.2789058815
 C         6.8861893820       -4.0633806478       -5.3844734213
 O         8.2976475214       -1.4983680779       -4.1209386123
 O         5.6817645612       -2.7220624935       -7.0742555451
 C         7.5278438672       -0.9898701260       -7.7189914533
 C         9.1786717121       -2.5424728630       -6.5291390507
 C         5.5389885501       -4.7622763997       -5.0393398771
 C         4.7591891851       -3.8739136047       -3.9234472869
 C         4.0133939855       -4.6407484447       -2.7817327969
 C         2.5252407680       -3.9856334585       -2.7011574910
 C         1.6750877544       -4.0467586517       -3.8955729787
 C         3.8895721183       -6.1688342339       -3.1120532175
 C         4.7171531161       -4.5145190247       -1.3986355030
 O         4.8351682695       -2.6174223422       -3.9732106777
 O         2.2455493303       -3.3934822539       -1.6924119624
 C         0.6063217623       -2.9390294146       -4.0498631961
 C         1.4130074949       -1.5679149950       -4.0173634547
 C         0.6440080601       -0.2015137803       -3.6262339200
 C         0.6937028289       -0.0766888393       -2.1162605236
 C        -0.4520781804        0.4704224465       -1.3977850539
 O         2.5773924692       -1.5437935399       -4.1709276465
 O         1.6683836551       -0.4041742366       -1.4179512223
 C         1.5365791059        0.9210867028       -4.1166786080
 C        -0.7588316375       -0.1233594694       -4.3542033796
 C        -0.3184103191        0.6448522147        0.1063962173
 C         0.0406536091        2.0478193584        0.4791951606
 C        -0.1385907497        2.6220215693        1.9894219201
 C        -1.6243135135        2.6149635315        2.4038279293
 C        -2.1822641180        3.8991835590        3.1957021613
 C         0.5487330389        1.6063661235        2.8899755492
 C         0.5910012116        4.0550733863        1.9703356274
 O         0.5115301146        2.9042345343       -0.3191705586
 O        -2.4012026450        1.6979578353        2.0622934941
 C        -3.5648769213        3.5592573348        3.7042033680
 C        -3.9780159022        4.5320469437        4.8760323427
 C        -5.4903187205        5.0447274321        4.9078877154
 C        -6.3891241445        3.8324983148        5.2111496890
 C        -6.2590518560        3.1478882624        6.6706040245
 O        -3.2039820267        4.8042438497        5.7349942771
 O        -7.2730057828        3.4735847732        4.4976299219
 C        -5.5271577849        6.0372044404        6.2515493737
 C        -5.7504561945        5.6795063140        3.5599417819
 C        -6.7589936776        1.6690342730        6.7407058789
 C        -6.1110052993        0.6517296558        5.7746839979
 C        -6.8871231611       -0.6848997030        5.4336638906
 C        -8.3791996803       -0.6403645128        5.0690736359
 C        -8.8330930506        0.5206886869        4.1869583182
 C        -6.2246799252       -1.3426866811        4.2264750807
 C        -6.6430323850       -1.6349985850        6.6790960793
 O        -5.0988171362        0.9976011872        5.2550237341
 O        -9.1484217884       -1.4739537599        5.5070227998
 C       -10.2113560850        0.4062485381        3.4762162005
 C       -10.2164218127        1.1764408078        2.1646144364
 C       -11.2334220459        0.7411810676        1.0843512225
 C       -10.2421144095       -0.1398940912        0.0660490911
 C        -9.1364530850        0.5635122481       -0.7170558992
 O        -9.3974688226        2.0516992530        1.9482272064
 O       -10.4460258579       -1.3601973378        0.0832534474
 C       -12.3818615707       -0.1784664297        1.5647811702
 C       -11.8862973573        1.9271242344        0.2603362188
 H         6.5943033641       -1.0029715140        1.6950943100
 H         7.9032480477        0.0756559952        0.8907569647
 H         6.5754646142        0.6741781408        1.6816713947
 H         7.7227702046        2.1891169794       -3.4682541192
 H         8.6433313648        0.6562112112       -2.9506019533
 H         5.1373797869        2.7249952166       -1.5468295024
 H         4.9427816677        1.9629090738        0.0603252993
 H         4.2719899161        1.0464415187       -1.2580145258
 H         8.4773724531        1.5436483623       -0.7030712671
 H         7.7407015828        2.8673782937       -1.4807014373
 H         7.0540855925        2.4288684186        0.2080036004
 H         6.6398214915        0.8123283547       -5.3417256313
 H         8.4357389342        1.1169086746       -5.4453242270
 H         7.4513434667       -4.8533670255       -5.8934429597
 H         7.3930610619       -3.6875486635       -4.4810546178
 H         6.5346066097       -0.6508274612       -7.6710320724
 H         7.7656293913       -1.5177104879       -8.6460596767
 H         8.2009489227       -0.1296630952       -7.7038862296
 H         9.1631969384       -3.4995153158       -7.1817058484
 H         9.9531043974       -1.8366163850       -6.9116696365
 H         9.5109150269       -2.9727429346       -5.5825027546
 H         5.6793734877       -5.8229894709       -4.7212414961
 H         5.0891132465       -4.7629832322       -6.0047438512
 H         2.1083954332       -4.3520884464       -4.8908639792
 H         1.0405946487       -4.9175640623       -3.6312833665
 H         3.3604152490       -6.3595414637       -4.0091909141
 H         3.4204737293       -6.6290090062       -2.2265602138
 H         4.7517654518       -6.7969050785       -3.1157676325
 H         5.7585456756       -4.7791454561       -1.3585533708
 H         4.7791541800       -3.4915664453       -1.0169730591
 H         4.1310821966       -5.0906635800       -0.7768234544
 H         0.1820250433       -2.9790648169       -5.0992411587
 H        -0.2418940585       -3.1170188885       -3.3343926452
 H        -0.5718682935        1.4400163674       -1.8508154014
 H        -1.3786693834       -0.0779337443       -1.6531196784
 H         2.5458109459        0.6034041144       -3.9166911051
 H         1.2739047552        1.8729856925       -3.6140346950
 H         1.3615354061        0.9690372454       -5.1348173135
 H        -1.2990821904        0.7873096201       -3.9902147421
 H        -0.6932389863       -0.2604289701       -5.4305249374
 H        -1.2881152357       -1.0172637116       -4.0337252840
 H         0.3790143457       -0.0513794558        0.4384287554
 H        -1.2968525852        0.3148865071        0.4096115040
 H        -1.5583269156        4.0304923494        4.1197573032
 H        -2.1201670356        4.7504270414        2.5103644853
 H         0.7824446455        2.0449392727        3.8609682517
 H         1.3767613912        0.9133227168        2.5260283686
 H        -0.1553167182        0.8143074200        3.1535595170
 H         1.6113830915        3.8516553703        2.0706572041
 H         0.4159718376        4.6834257902        1.1023952425
 H         0.4823087953        4.6234897247        2.8651462276
 H        -4.2646243797        3.7238926480        2.8629979096
 H        -3.6527947536        2.5121851643        4.1104932672
 H        -5.3421311126        3.2049475615        7.1536397375
 H        -6.8811859025        3.9109171882        7.1700422480
 H        -4.8683892735        6.9565358697        6.2771011648
 H        -5.2094342740        5.4346078333        7.1271507357
 H        -6.5562849103        6.3962880352        6.3315290299
 H        -6.4637832281        4.9746572355        2.9992728301
 H        -6.1394682775        6.6598840779        3.6023657552
 H        -4.9387964499        5.8216571029        2.8569410848
 H        -7.8977026871        1.6993734483        6.6874453543
 H        -6.6903359843        1.3105181049        7.8035819964
 H        -8.7280261120        1.5478750762        4.6062950326
 H        -8.0406929538        0.6315277501        3.3992361378
 H        -5.1290514026       -1.4198876241        4.2883474728
 H        -6.4371257939       -0.6094805232        3.3857092408
 H        -6.6051972615       -2.3411601873        4.0083024752
 H        -7.0721702655       -1.1090709932        7.5692928722
 H        -7.1877206615       -2.5716324389        6.3978371635
 H        -5.6289578241       -1.7877394861        7.0315996919
 H       -10.3614659389       -0.6571881062        3.4084783395
 H       -10.9389784112        0.8286801444        4.0839488029
 H        -8.2895706421       -0.0684953200       -0.6877861414
 H        -9.4835182339        0.6594674002       -1.7563870234
 H        -8.9444060609        1.5872048312       -0.2829342836
 H       -12.0214055002       -1.1737562988        1.8854372793
 H       -12.8042943849       -0.2479502270        0.6099467781
 H       -12.9870303314        0.1915905659        2.3507204384
 H       -12.6963813828        1.4704818438       -0.3541659881
 H       -12.0416090261        2.8159842655        0.8757932999
 H       -11.2368604868        2.2285413372       -0.5197476641
 Na        3.7880622767       -1.3456882806       -2.2548023567
