155

 C         6.7459770528       -0.2923945960        1.1149203175
 C         5.9312586870       -0.0370944896       -0.0719653326
 C         6.1047740450        1.2040365653       -1.1092869654
 C         6.2681180931        0.6947972963       -2.6243346035
 C         7.4760373715        1.2505529049       -3.5156126668
 C         4.7367159043        1.9617767696       -1.1225180139
 C         7.4094723286        2.0020203735       -0.7460225947
 O         5.2478917586       -1.0033778023       -0.3958536802
 O         5.4931832028       -0.0487101759       -3.1472003327
 C         7.4683674307        0.5595623855       -4.9116750940
 C         7.8897745800       -0.8927264331       -5.0012583839
 C         7.9434667550       -1.6334250112       -6.3637735533
 C         6.7658075888       -2.7611819314       -6.2056696043
 C         7.0928431427       -3.9574572963       -5.1187280891
 O         8.2663061095       -1.4099486133       -3.9188071248
 O         5.7805157855       -2.7789941140       -6.8624192918
 C         7.6666544824       -0.7437791965       -7.6075572041
 C         9.3059800744       -2.3813814250       -6.4133985700
 C         5.7820174108       -4.7685080073       -4.8905537539
 C         4.8108208178       -3.9440171445       -4.0068906573
 C         3.9831835171       -4.7060390187       -2.8350361924
 C         2.5616134776       -3.9761724683       -2.7864574220
 C         1.5885659803       -4.0652436369       -3.9937437163
 C         3.8228102837       -6.1955374183       -2.9989719016
 C         4.7365303843       -4.2753893204       -1.4444230466
 O         4.8564689659       -2.7888494039       -3.8661744630
 O         2.0820277194       -3.4630803494       -1.7508305395
 C         0.6345219328       -2.8319352586       -3.9801827600
 C         1.4322778923       -1.4753812715       -4.0583178797
 C         0.7830776817       -0.0733303735       -3.6610197887
 C         0.8578347764        0.0023146453       -2.1280469839
 C        -0.3930302251        0.4760946292       -1.5018079469
 O         2.5992554559       -1.6517655490       -4.3995367646
 O         1.7990158953       -0.2817008341       -1.4609923776
 C         1.6941646576        1.0756813585       -4.1616930801
 C        -0.6449296429        0.0796240530       -4.2087967170
 C        -0.4225589669        0.6681144316        0.1169454589
 C         0.1590746344        2.0785047137        0.4644305998
 C        -0.0803558812        2.5313946667        1.9253712739
 C        -1.7023150291        2.5794692194        2.2025128247
 C        -2.2345445706        3.7616791514        2.9741098531
 C         0.5114894491        1.4004597273        2.8693268943
 C         0.6637324326        3.8298435960        2.2908572473
 O         0.5605235597        2.8659313906       -0.3335848976
 O        -2.3437201530        1.6459485008        1.8423235739
 C        -3.5724196068        3.4339855361        3.6546800269
 C        -3.8601698230        4.4396158762        4.7633309321
 C        -5.2752605384        5.0321896766        4.9531949494
 C        -6.2637515539        3.7238799767        5.1529622399
 C        -6.0845719273        3.0107674955        6.5020402040
 O        -2.8924364131        4.9700028255        5.3540121737
 O        -7.0126236016        3.2943947720        4.2929315080
 C        -5.3965600011        6.1594033022        6.0155321296
 C        -5.8102297298        5.7576315387        3.5945133125
 C        -6.8435200370        1.6636501720        6.6450070474
 C        -6.2815889245        0.6289784649        5.7828692981
 C        -7.0174431576       -0.7130228559        5.5094724632
 C        -8.5485579062       -0.5863258467        5.1524089507
 C        -8.9817424310        0.6115076354        4.3287735687
 C        -6.3156705435       -1.4060771151        4.2989567314
 C        -6.8720492395       -1.6513359623        6.7199233229
 O        -5.1526679878        0.7991598611        5.2857566372
 O        -9.3285492828       -1.4658504825        5.5148823047
 C       -10.2967074979        0.3670608431        3.5844622686
 C       -10.2227184284        0.9561393633        2.2027386016
 C       -11.2056860562        0.6524055094        1.1208026921
 C       -10.3060361614       -0.2359648818        0.0189485425
 C        -9.2207344941        0.6187308877       -0.8023400234
 O        -9.3828259724        1.8186060868        1.9547938527
 O       -10.4923379493       -1.3983122590       -0.1771071639
 C       -12.3860523498       -0.2292929404        1.5288724832
 C       -11.6358502671        2.0099808023        0.4844428922
 H         6.0426877692       -0.7374794257        1.7823877636
 H         7.6061247740       -0.8850407163        0.7560655354
 H         7.2749975640        0.5851013941        1.6455922088
 H         7.4100857194        2.2800530058       -3.5376857969
 H         8.3389306904        1.0239362235       -2.9504011969
 H         4.8874402520        2.9911008639       -1.3228559530
 H         4.3134103331        1.8337888205       -0.0797492687
 H         4.0436237465        1.5682357029       -1.8319205204
 H         8.2236284858        1.3503359835       -0.9600436239
 H         7.5261347124        2.7170474740       -1.4393028659
 H         7.2696885997        2.4622925975        0.2311292246
 H         6.4057409144        0.6706763529       -5.2009587230
 H         8.1933312414        1.0948591226       -5.5979993944
 H         7.8503850916       -4.6484528506       -5.4963534163
 H         7.3571290055       -3.6024056173       -4.1291485943
 H         6.5624528131       -0.6219735343       -7.7027205194
 H         8.0122840691       -1.3133332188       -8.4799157764
 H         8.2222005249        0.2141601346       -7.5857629561
 H         9.3140615453       -3.2793549303       -6.9833231841
 H        10.0730940442       -1.7249197174       -6.8485322573
 H         9.6433825332       -2.7033123753       -5.4152925724
 H         5.8324443670       -5.7428328335       -4.4306105163
 H         5.3970301972       -4.9244722130       -5.9747614660
 H         2.0442004960       -3.9547520031       -4.9462961939
 H         1.0457382757       -5.0083578709       -4.0698459790
 H         3.6140489424       -6.5430296308       -4.0364757966
 H         3.2229141936       -6.6421582418       -2.2314088228
 H         4.7690964698       -6.7266102528       -2.8277949448
 H         5.7908701523       -4.6877143625       -1.4056671312
 H         4.9025971909       -3.2200573855       -1.1886158393
 H         4.1725377887       -4.8371571012       -0.5980046904
 H        -0.0709116743       -3.0047373287       -4.7576229399
 H         0.1286257652       -2.6746339281       -3.0328204555
 H        -0.5839660275        1.5209514427       -1.9260704213
 H        -1.2195186742       -0.1186350430       -1.9203293855
 H         2.6962538654        0.6327087639       -4.2016931476
 H         1.6876902638        1.7754895543       -3.4032512475
 H         1.4809125587        1.4989143042       -5.1744070296
 H        -0.9556032035        1.1070727589       -4.0174515943
 H        -0.6507135754       -0.1830428039       -5.2850726489
 H        -1.3200764152       -0.6627982900       -3.7633296338
 H        -0.1624234070       -0.2815569953        0.6664438165
 H        -1.5011894678        0.7359414961        0.1609226652
 H        -1.5462481657        3.9978611226        3.7530256300
 H        -2.3331113143        4.5530484250        2.2051916450
 H         0.5065454830        1.7042996360        3.8906274173
 H         1.5084467376        1.2417260453        2.5797551638
 H         0.1738217574        0.3975904853        2.8132311243
 H         1.7685637866        3.8448724650        2.2957582783
 H         0.2215095321        4.6640750617        1.8065819122
 H         0.5328193236        3.9986124037        3.3941671565
 H        -4.3697939127        3.3731732746        2.9268722339
 H        -3.5196963014        2.5504099132        4.2833410441
 H        -4.9672665259        2.9066032290        6.6428154637
 H        -6.3584381036        3.7655013409        7.2677834485
 H        -4.7164221865        6.9047324280        5.7579344488
 H        -5.0038444872        5.9467776679        6.9735976645
 H        -6.3769921000        6.5584507206        6.0447214179
 H        -6.0306936838        5.0807219279        2.8405537799
 H        -6.6759081314        6.4363137567        3.7826144918
 H        -5.1300730119        6.4370207795        3.1313614690
 H        -7.8388195874        1.8938642735        6.4930699508
 H        -6.7839065942        1.3792003380        7.6548375284
 H        -9.0186737563        1.5138280517        4.8969601567
 H        -8.2346923530        0.9430087915        3.6299419676
 H        -5.2655408922       -1.1390676954        4.2186376116
 H        -6.7283910971       -1.0403503661        3.4177932124
 H        -6.3681983040       -2.5004446008        4.3872636570
 H        -7.3913134071       -1.2209013414        7.5971461268
 H        -7.2254198599       -2.6629702319        6.5118383374
 H        -5.8159936888       -1.5994687663        7.0351730026
 H       -10.4574873185       -0.7548957455        3.5586437339
 H       -11.2665076751        0.7144187522        4.1228729438
 H        -8.3324376834        0.0871291746       -1.1365694832
 H        -9.7173222356        1.1009166707       -1.6306879460
 H        -8.8673238268        1.3263524810       -0.0790087499
 H       -11.8774423895       -1.0463615107        2.0008308591
 H       -13.0192049113       -0.4737492480        0.6004016150
 H       -12.9559370678        0.2946185050        2.3383611492
 H       -12.4829458323        1.7157672756       -0.0530764964
 H       -11.8483453538        2.7671294602        1.2519275936
 H       -10.9000850389        2.4200454467       -0.2513312225
 Na        3.9529389960       -1.5745873784       -2.2285769758
