155

 C         6.6410639113       -0.1245867211        0.8488029495
 C         5.5808323019        0.0953281301       -0.2440104092
 C         5.6395233446        1.4130397278       -1.0349223347
 C         5.8721153287        1.0988025371       -2.5494828790
 C         7.1488214683        1.4865136999       -3.3222411629
 C         4.2601360684        2.1661757099       -0.8732796574
 C         6.6205957423        2.4305982077       -0.4065576774
 O         4.6097003028       -0.6496614765       -0.3434132649
 O         4.9792070086        0.6339048150       -3.1812925344
 C         7.2679466895        0.8583593656       -4.7610027231
 C         7.8425317972       -0.6254172861       -4.5470449626
 C         8.0373786635       -1.6177308916       -5.7962798674
 C         7.0150649333       -2.7778645504       -5.6520966291
 C         7.4914588130       -3.7451321865       -4.4876658467
 O         8.1567593654       -0.9310555767       -3.4023831137
 O         6.0610621088       -2.9334585057       -6.4339925471
 C         7.7880494850       -0.9045384772       -7.1508558978
 C         9.5107309089       -2.1201206803       -5.7570356504
 C         6.3443369676       -4.7537126602       -4.3190043238
 C         5.2807553363       -4.0939071873       -3.4355317742
 C         3.9734034000       -4.8818214204       -3.0087507287
 C         2.7431134657       -3.8768140724       -2.8140610854
 C         1.7874725337       -3.9415098601       -4.0901242054
 C         3.6928086515       -6.1866664102       -3.9283454560
 C         4.3818942703       -5.5268429677       -1.6512415253
 O         5.4021462658       -2.9146091979       -3.0709293941
 O         2.6233741084       -3.2232665715       -1.8309260199
 C         0.8959745831       -2.5710724096       -4.0593729033
 C         1.6137112524       -1.2778410571       -4.3814293100
 C         0.9374110332        0.1603302971       -4.0497117017
 C         0.9331056452        0.2437390631       -2.4518872863
 C        -0.4050943720        0.4963169682       -1.7483371847
 O         2.7029818175       -1.3281352550       -4.8170408576
 O         1.9644763955       -0.0493647826       -1.8436766038
 C         1.8383991109        1.2517277965       -4.6973596460
 C        -0.4225544501        0.1473307037       -4.6540918122
 C        -0.3943658435        0.4537851245       -0.1810550468
 C         0.3154269375        1.6653926147        0.4619663656
 C         0.1221845405        1.9224571626        2.0596660276
 C        -1.6072641363        2.3318190275        2.1775847027
 C        -2.0395984403        3.7080180089        2.7889294880
 C         0.4692747550        0.6606204648        2.8759613077
 C         1.1113460264        3.0897089716        2.3579729236
 O         0.7694725130        2.5090125608       -0.2381167041
 O        -2.3136885064        1.4624093671        1.8337808315
 C        -3.5538924663        3.5972180092        3.2031365707
 C        -3.8710614126        4.7025921725        4.2384150623
 C        -5.3160469554        4.8623517529        4.7945905605
 C        -5.9688001677        3.5568242330        5.1023589300
 C        -5.8415571123        2.9754319293        6.4560550261
 O        -2.9365280261        5.3480149931        4.7069338395
 O        -6.4663648352        2.9265326477        4.1538831178
 C        -5.2271641290        5.8528860691        6.0700689048
 C        -6.0598542278        5.6065696649        3.6501668668
 C        -6.5746625550        1.7115062919        6.7674835032
 C        -6.3458885749        0.4710614431        5.8072833825
 C        -7.3344771835       -0.7903361451        5.8037401039
 C        -8.7912980180       -0.4267342037        5.5285612464
 C        -9.0314671108        0.5719911783        4.3668880241
 C        -6.7527965575       -1.7238385271        4.7246491600
 C        -7.2061636978       -1.5667315576        7.1131701321
 O        -5.3688261836        0.5797326549        5.0264619713
 O        -9.6954839770       -0.9559308257        6.1409161922
 C       -10.1489040806        0.0370470390        3.3944512183
 C       -10.1047403992        0.7304603751        1.9964564910
 C       -11.2457711346        0.5090590793        0.9856438853
 C       -10.6206655476       -0.2039322220       -0.3245515161
 C        -9.5150045861        0.6731860433       -1.1046679873
 O        -9.1704793361        1.4637442072        1.7438481466
 O       -10.7613752189       -1.3441225055       -0.6312119735
 C       -12.4274397208       -0.3292857855        1.4095554519
 C       -11.6913606016        1.9589156033        0.6275611028
 H         6.6490707855       -1.1518140258        1.1138162322
 H         7.6690327373        0.2646308684        0.5514832085
 H         6.3966033930        0.4640112147        1.7546271544
 H         7.2497500990        2.5811618763       -3.3489631670
 H         7.9966446434        1.2549355738       -2.6857750416
 H         4.3332955736        3.1933152185       -1.2616393058
 H         3.9586737009        2.3030285737        0.2114766098
 H         3.5224822881        1.7458619389       -1.4800945519
 H         7.6167582533        2.0517181983       -0.2905229339
 H         6.4364314546        3.3416028271       -0.9019865822
 H         6.4634616185        2.4718815195        0.6689052838
 H         6.3669753722        0.8369225212       -5.3572665507
 H         7.8961116074        1.5438168565       -5.3052838244
 H         8.3437211966       -4.3570821937       -4.8107036913
 H         7.8244504170       -3.2365220348       -3.5905556326
 H         6.7140120032       -1.0702777339       -7.5360918301
 H         8.4500185455       -1.2730154088       -7.9362468674
 H         7.9205302081        0.1435046126       -6.9869302593
 H         9.7028823867       -3.0040905610       -6.2594409261
 H        10.1592559270       -1.4155237934       -6.1727103811
 H         9.8321418171       -2.1481798100       -4.7154234176
 H         6.5873627260       -5.7985723209       -3.9519501160
 H         6.0034614847       -5.0945068321       -5.2478423513
 H         2.4428147483       -3.7807226998       -4.9662572103
 H         1.2776263305       -4.8770924465       -4.1832149433
 H         3.6162310648       -6.1253187550       -4.9874617631
 H         2.6687784665       -6.4864347420       -3.7492531402
 H         4.4244460431       -7.0060921867       -3.6973437146
 H         5.3522802030       -6.0273795875       -1.7066090062
 H         4.1877816532       -4.8959261856       -0.7934931314
 H         3.7958216963       -6.4097779399       -1.3643160570
 H         0.0270837115       -2.7171925325       -4.7087480684
 H         0.4782579470       -2.3315670677       -3.1012296558
 H        -0.8437270581        1.4109871557       -2.1302253316
 H        -1.1123823556       -0.2306930688       -2.2259051583
 H         2.4775807973        1.6456609775       -3.8745318720
 H         1.2043012728        2.1320624874       -4.9419180978
 H         2.5275199320        0.9817579576       -5.5761526069
 H        -0.9371905197        0.9790048838       -4.3816974445
 H        -0.3998135227        0.1775227779       -5.7282487705
 H        -0.9559580543       -0.7077798149       -4.1898981807
 H         0.1178607087       -0.4979084119        0.0923201875
 H        -1.4710941103        0.2450522160        0.1519882459
 H        -1.2991640627        3.8298338222        3.5971421808
 H        -1.9651454637        4.4756177383        2.0633637817
 H         0.4849033998        0.8703547185        3.9349451016
 H         1.3754838747        0.1730943062        2.7357659259
 H        -0.3991788290       -0.0019646432        2.7766637345
 H         2.1065131102        2.5545652282        2.3641362259
 H         1.2269659768        3.9331218084        1.5829085389
 H         0.9205453906        3.6136296200        3.2827746751
 H        -4.2003721411        3.5517676901        2.3424301682
 H        -3.6137412053        2.6596772999        3.7195534052
 H        -4.7427094512        2.6979072892        6.5296834045
 H        -6.0098450926        3.7694038122        7.2443872942
 H        -4.8392851140        6.8083248110        5.7786237762
 H        -4.6870037709        5.3918807540        6.8556555199
 H        -6.1723018358        6.0308506486        6.6010753109
 H        -5.4861901934        5.6712884251        2.7352871262
 H        -6.9157058497        5.1090931060        3.2636285481
 H        -6.2516379673        6.7163140830        3.9106901162
 H        -7.6328326123        2.1330019481        6.8596699776
 H        -6.0989322741        1.4522525469        7.8081983927
 H        -9.2827548145        1.6018304409        4.7421384151
 H        -8.1097113238        0.6637378714        3.7267696604
 H        -5.6907741681       -1.7519942651        4.8116118354
 H        -7.0100582143       -1.3563519102        3.7100156885
 H        -7.1773078856       -2.6742909187        4.8035301599
 H        -7.8337570998       -1.1467284045        7.8377810939
 H        -7.6547593929       -2.5411515560        7.0294802929
 H        -6.1695987606       -1.7487972050        7.3396184324
 H       -10.0778077303       -1.0714749606        3.2485255351
 H       -11.2044693220        0.0580755877        3.7839334676
 H        -9.1683447831        0.1750081648       -2.0828568431
 H       -10.0103608583        1.5532051571       -1.4255912972
 H        -8.5881348468        0.7786944706       -0.5560553957
 H       -12.1465162225       -1.3554958679        1.6413130504
 H       -12.9708536415       -0.4221208554        0.5149122481
 H       -13.1832259774        0.2645517352        1.9888461505
 H       -12.7007672119        1.9431935308        0.2167465698
 H       -11.8603171346        2.5942491214        1.4205186109
 H       -10.8696104647        2.3174098857        0.0108741295
 Na        3.9108252879       -1.2840151808       -2.3554142037
