155

 C         6.2921146046        0.2248180710        0.7573902456
 C         5.1680896248        0.5876756773       -0.1927542301
 C         4.9816001183        1.9276671463       -1.0212396112
 C         5.3190911220        1.5686660846       -2.4827557066
 C         6.6485970616        2.1482030012       -3.2469972478
 C         3.5388805224        2.4147945511       -0.9349224403
 C         5.9583096540        3.0202957790       -0.4499106845
 O         4.2216472899       -0.1623736361       -0.1866211039
 O         4.6881968625        0.7496654230       -3.1110540179
 C         7.2144224434        0.9710064186       -4.1064647933
 C         8.2491097036        0.2468259096       -3.2717870806
 C         9.0615923067       -0.9838321351       -3.8557128324
 C         8.0086483054       -2.2246909649       -3.9414189883
 C         7.7572805611       -3.0949981797       -2.7192047804
 O         8.3219260091        0.3379877612       -2.0321155528
 O         7.4105764431       -2.4586242014       -4.9367109835
 C         9.5907129285       -0.5988052388       -5.2526143692
 C        10.3653114719       -1.2553383941       -3.0608294217
 C         6.8275156850       -4.3211443054       -2.9664812751
 C         5.3496886506       -3.8666930690       -2.7969803396
 C         4.3164358191       -4.6937474252       -3.5709825535
 C         3.0184545081       -3.7339077935       -3.7989942888
 C         2.6431089103       -3.3675741896       -5.1712635885
 C         4.9469661412       -4.9613248963       -4.9000651641
 C         3.8825374090       -5.9377603231       -2.8357533541
 O         5.1553029456       -2.9340217297       -2.0740697270
 O         2.6134746486       -3.1342641276       -2.8192005026
 C         1.4936661377       -2.3331115003       -5.3525919255
 C         1.8167320781       -0.9228567775       -4.8664067050
 C         0.6752434633        0.1679280000       -4.4534328835
 C         0.2980231956       -0.1267881730       -2.9261192938
 C        -1.1194700161        0.1179438228       -2.4119662501
 O         2.9410480452       -0.5566821162       -4.8198387890
 O         1.1820394362       -0.4585635123       -2.1334088945
 C         1.4908793714        1.6023250543       -4.4302200686
 C        -0.4875801436        0.2487907649       -5.3960857848
 C        -1.2544982664       -0.0044148659       -0.9513012054
 C        -0.3051196180        0.8365790209       -0.2165523869
 C        -0.3152022771        0.7160116161        1.4613039979
 C        -1.6110011952        1.3689106838        1.9288185155
 C        -1.7026037238        2.6674067957        2.6119475841
 C        -0.2696375150       -0.8599465943        1.7916350340
 C         0.9753663321        1.3188193056        2.0449372469
 O         0.3871227343        1.7345456497       -0.6667316385
 O        -2.6435700978        0.8905209065        1.4452550506
 C        -3.1036055048        3.2920913394        2.7071351266
 C        -3.5092380185        3.8555418614        4.1553195443
 C        -5.0188543162        4.2456109912        4.2827218221
 C        -5.7340162198        2.9752014447        5.0084366863
 C        -5.2617105185        2.6971330203        6.4449790317
 O        -2.6647360845        3.9942139966        5.0132396869
 O        -6.4977403007        2.3619580807        4.3394530706
 C        -5.0378892972        5.5346384866        5.1422775862
 C        -5.7290073166        4.6100901743        2.8450603730
 C        -6.0244088065        1.5897855520        7.1538962695
 C        -6.2383639565        0.4534695622        6.1959419884
 C        -7.6798960057       -0.2630311234        6.1383436871
 C        -8.5973151637        0.5934991974        5.1207731358
 C        -8.3217544758        0.5473515084        3.5526805387
 C        -7.3571758206       -1.6840353262        5.5726671731
 C        -8.4229137116       -0.3050097766        7.4202977273
 O        -5.2965065360        0.0495378188        5.5571016452
 O        -9.4704242288        1.2215926019        5.6181100733
 C        -9.5668320454       -0.0948698557        2.9583747716
 C        -9.8083871145        0.3115137909        1.3730082062
 C       -11.3237269106        0.2447655351        0.9020948527
 C       -11.1888361954       -0.3584137893       -0.5369664668
 C       -10.5808986594        0.5567821117       -1.5901493050
 O        -8.8109051112        0.6060075771        0.7354147969
 O       -11.4573924660       -1.5324614068       -0.7557711495
 C       -12.1590981500       -0.6603401134        1.7370857041
 C       -11.8706432248        1.7313271072        0.9798477569
 H         5.9926961284       -0.7513180340        1.0525859619
 H         7.2963310275        0.3339836946        0.2757376067
 H         6.4555638952        0.8566866246        1.6542720521
 H         6.2841040461        2.8252453991       -3.9756085716
 H         7.4084095770        2.4593105292       -2.5616623711
 H         3.3037980529        3.4040748193       -1.2034429328
 H         3.0220777364        2.2838147156        0.0612009624
 H         2.9513296516        1.8564522736       -1.6542465145
 H         6.8752642623        2.6385481659       -0.1021049141
 H         6.1094713322        3.6746043422       -1.1995853699
 H         5.7534784113        3.6356038164        0.4265714319
 H         6.4341442325        0.1742289438       -4.3657036495
 H         7.7806568408        1.2959142969       -5.0087964374
 H         8.6550427415       -3.4249932584       -2.2574641942
 H         7.2738537087       -2.2928207409       -2.0768948960
 H         8.7247904126       -0.4244837838       -5.9599657968
 H        10.2127500737       -1.3777829283       -5.6302164292
 H        10.1110796308        0.3074288813       -5.2215702812
 H        11.0160461760       -1.8296123667       -3.6696783189
 H        10.7196887232       -0.2464011974       -2.7967202333
 H        10.1300602418       -1.7122394338       -2.0783702421
 H         7.0196593152       -4.9659295050       -2.0834454132
 H         6.9547341574       -4.6837448462       -3.9632834489
 H         3.5846331388       -3.1577588464       -5.6749306747
 H         2.3889239094       -4.3529395274       -5.5223274545
 H         5.3613139683       -4.0354504737       -5.2625030822
 H         4.2888242715       -5.3130055173       -5.7171670523
 H         5.5623824667       -5.8580179537       -4.7235813054
 H         4.4517789249       -6.7910329907       -3.0630476924
 H         3.6940771479       -5.6978801461       -1.8667775417
 H         2.8546572285       -6.1117054902       -3.1086418198
 H         1.2577188188       -2.0586801465       -6.3955962301
 H         0.5316124914       -2.7041579776       -4.9786483571
 H        -1.2123790073        1.2172788974       -2.6926395070
 H        -1.7563772820       -0.5728030743       -2.8979556257
 H         2.4342866556        1.7152381746       -3.9512506763
 H         0.9077755708        2.3500042125       -4.0234261242
 H         1.6792393034        1.9324639084       -5.4813644544
 H        -1.0957052997        1.0757190973       -5.1628379206
 H        -0.0207668589        0.3968769890       -6.3897136613
 H        -1.2325821577       -0.6047838236       -5.5099041314
 H        -1.3231805937       -1.0713666302       -0.6275768963
 H        -2.1138808639        0.6335415740       -0.5980282750
 H        -1.4457688109        2.5118122247        3.6942328620
 H        -0.9595415060        3.4141090289        2.1879265553
 H         0.2584987057       -1.0009175850        2.7790667316
 H         0.2123586394       -1.4924298835        1.0421245639
 H        -1.3776452199       -1.0134508975        2.0058496040
 H         1.7862564212        0.8168949940        1.5856258075
 H         1.0443797397        2.3435413126        1.7363622864
 H         0.8217979226        1.3683242427        3.0765231324
 H        -3.1593897420        4.0890656264        1.9626844685
 H        -3.8744935345        2.5199114632        2.4515797162
 H        -4.2522181132        2.4071332944        6.5459698640
 H        -5.3225485055        3.5163634658        7.2276109953
 H        -4.2641523384        6.2626500243        4.7864481572
 H        -4.8737314837        5.1186310105        6.1704948183
 H        -6.0932211521        5.9850795530        5.1904123906
 H        -5.0452664752        5.0823022747        2.2662262283
 H        -6.0898258445        3.6984361227        2.3073895660
 H        -6.5135294266        5.2953685139        3.1563025010
 H        -7.0326077231        1.9304689390        7.4850113811
 H        -5.4032491374        1.3100217737        8.0675194239
 H        -8.2127777344        1.5632034213        3.3417282432
 H        -7.4813854453        0.0238795124        3.2254263852
 H        -7.0605411271       -2.2139404394        6.4397566988
 H        -6.5511455900       -1.7120056925        4.8152892046
 H        -8.1783991365       -2.1610746541        5.1308080296
 H        -8.7768431737        0.5943122883        7.8935280335
 H        -9.3062794579       -0.9562679495        7.4195154790
 H        -7.8460206677       -0.8607678566        8.1523675165
 H        -9.6066656175       -1.2526148570        2.9153598075
 H       -10.5015109518        0.1399780981        3.5392107579
 H       -11.1939719141        0.8275932483       -2.4663300293
 H       -10.3258085661        1.4898494855       -1.1059051134
 H        -9.6722864648        0.1007449154       -1.9816535491
 H       -11.7144952197       -1.5929735999        1.9682537240
 H       -12.9221011951       -1.1538448434        1.2030138742
 H       -12.6574459937       -0.2033344813        2.6803792222
 H       -12.9119089522        1.8042848219        0.6654035675
 H       -11.9559178499        2.0736551688        1.9440125142
 H       -11.1085757041        2.4422593992        0.5681907500
 Na        3.3869551382       -0.9906542794       -2.3582051387
