155

 C         5.5947634021        0.6055033554        1.1615742865
 C         4.9611434772        0.6632864716       -0.1634088945
 C         4.7989003879        2.1196322229       -0.9114250628
 C         5.6321651750        1.9710048477       -2.1280181439
 C         7.0604854524        2.4462285769       -2.2043623689
 C         3.2253119016        2.0990729857       -1.1542823279
 C         5.2023428983        3.3227685479       -0.1420559517
 O         4.5258480862       -0.2769876985       -0.7399491967
 O         5.2241258614        1.4024939771       -3.0998106157
 C         7.9300222955        1.3593656001       -2.8132644881
 C         8.2624851600        0.3235752396       -1.6626130421
 C         9.5506263260       -0.5488401011       -1.7863259619
 C         9.1444180103       -1.5564990607       -3.0111818108
 C         8.2362452985       -2.7668932401       -2.5414314309
 O         7.5765666517        0.1798880559       -0.7103315270
 O         9.4390008824       -1.3029597991       -4.1519337715
 C        10.7816613486        0.2673552323       -2.3062370458
 C         9.8219815120       -1.3137805169       -0.4500913694
 C         7.4101615221       -3.3983328613       -3.7005449573
 C         5.8433098263       -3.0809354434       -3.6239384499
 C         4.8691503887       -4.0882858398       -4.2129131359
 C         3.4031448117       -3.6246507251       -4.5540799364
 C         2.9963661565       -3.3655087545       -6.0280035659
 C         5.5639669989       -4.8725183844       -5.3584005261
 C         4.5347157018       -4.9461446798       -2.9035414055
 O         5.5861952075       -1.9574010386       -3.1970074389
 O         2.5913377178       -3.3746995585       -3.7120040390
 C         1.7087553633       -2.5859031267       -6.0214284402
 C         1.8769761445       -1.1339257693       -5.4809801973
 C         0.5572210177       -0.2836379998       -5.1538319091
 C         0.3603550322       -0.5361483646       -3.5428252525
 C        -1.0833359664       -0.7804824853       -3.0162888072
 O         3.0209128530       -0.7992589108       -5.1834543504
 O         1.2896769131       -0.5234571230       -2.7709970264
 C         0.9597493981        1.1665833952       -5.2190661074
 C        -0.6179444110       -0.7820692405       -6.0411263038
 C        -1.1113555795       -1.0716984654       -1.5379310844
 C        -1.0433576945        0.2767926387       -0.6327079536
 C        -0.9971405572        0.0376713537        0.8975798800
 C        -2.4048605333        0.6941041880        1.5583623264
 C        -2.0996354079        1.8571628409        2.5837995237
 C        -1.1681989279       -1.4553876395        1.2398715279
 C         0.2248092360        0.6327046271        1.4476110959
 O        -0.9185887831        1.3523314780       -1.2432973847
 O        -3.4642373089        0.2979553232        1.2377034700
 C        -3.4120832654        2.3508478902        3.2496914505
 C        -3.0759304253        3.4677109414        4.3459397581
 C        -4.1748176377        4.4948535959        4.8537866256
 C        -5.5701973736        3.7067818967        5.2393950814
 C        -6.0236499080        3.5173870624        6.7132489183
 O        -1.9227367040        3.6610941988        4.6380896965
 O        -6.2197091956        3.2583431042        4.3127200059
 C        -3.5702613983        5.2240037416        6.0415007400
 C        -4.5599899418        5.3949185527        3.5519692471
 C        -7.1016427780        2.5064224048        6.6180170953
 C        -6.6196291793        1.0912231088        5.9990021811
 C        -7.8334073829       -0.0338805214        6.1914508073
 C        -9.0526087608        0.2721859945        5.2320943279
 C        -9.0255443407       -0.2481557965        3.7071770677
 C        -7.1688799693       -1.4433923321        5.7984016814
 C        -8.4094509334       -0.0959278383        7.5842695092
 O        -5.6406767518        0.8162279297        5.4158272896
 O       -10.0288931696        0.8461296512        5.6270985952
 C       -10.1856234621        0.4180835636        2.9015491983
 C       -10.1901744296       -0.0305806091        1.4654761459
 C       -11.5751906053       -0.1436130470        0.7027705473
 C       -11.3166831482       -0.7708798316       -0.6964954986
 C       -10.7195919673        0.0999857553       -1.7847769726
 O        -9.1298620729       -0.4001586419        0.9896015800
 O       -11.5213825612       -1.9777689775       -0.8524866336
 C       -12.6371039647       -1.0797177166        1.3314684728
 C       -12.1744292718        1.2954083098        0.6440059969
 H         6.1816124966       -0.2668707393        1.1988768274
 H         6.4419968520        1.3377836048        1.2884927776
 H         4.9058111325        0.7887230516        2.0121961485
 H         6.9621531679        3.4219227504       -2.7634692309
 H         7.4746852628        2.8289511733       -1.2476004023
 H         2.9533242967        3.1295505635       -1.5142218039
 H         2.6533383700        1.8973395465       -0.3106978904
 H         2.9547856897        1.3939898527       -1.8929820681
 H         6.1919916097        3.0364238282        0.3205431494
 H         5.0326714722        4.1916344503       -0.7711867450
 H         4.5418125674        3.2981094072        0.7229977236
 H         7.2966080189        0.9431805742       -3.5640766228
 H         8.7524629601        1.6859979607       -3.3666627720
 H         8.9131534759       -3.6063129488       -2.3170137123
 H         7.6661928254       -2.6918710236       -1.5804319810
 H        10.6833355713        0.4222238918       -3.3150895328
 H        11.6862816849       -0.2581093979       -2.0247118526
 H        10.7399933768        1.2948899531       -1.8840879323
 H        10.8217587394       -1.8381122953       -0.5057159991
 H         9.7702546523       -0.7659519013        0.4875116192
 H         9.1254977206       -2.1347264106       -0.2825225011
 H         7.5791740451       -4.4966375272       -3.9962899931
 H         7.8283899303       -2.9446315835       -4.5842790390
 H         3.7543736263       -2.8446063431       -6.6372508116
 H         2.7430521372       -4.2066086475       -6.6292826408
 H         6.0208765813       -4.1191146025       -6.0487885674
 H         4.8360835807       -5.4454984342       -5.9193723476
 H         6.1589231265       -5.7053996626       -4.9823882664
 H         5.4204575622       -5.4051690503       -2.5730852605
 H         3.9323083521       -4.3421680167       -2.2528233497
 H         3.8578898503       -5.7139634725       -3.0680144996
 H         1.3760652341       -2.3669162834       -6.9817386657
 H         1.0454315831       -3.1061170804       -5.4181824424
 H        -1.6891478063        0.1091009918       -3.3547851536
 H        -1.6251154814       -1.5436625498       -3.5926576441
 H         1.9144593837        1.4469601771       -4.8246124012
 H         0.2689920855        1.9318702882       -4.7702404377
 H         1.0441250099        1.4554890157       -6.2170883819
 H        -1.4885600544       -0.0470383481       -5.9917192767
 H        -0.2789154433       -0.9514877777       -7.0889228799
 H        -0.9538560111       -1.7017817651       -5.5689482255
 H        -0.1827147736       -1.6396616070       -1.2977582016
 H        -1.9554808006       -1.7371512369       -1.2809969361
 H        -1.3925160220        1.4866511533        3.3199521243
 H        -1.4545601199        2.5373422117        1.9969226908
 H        -1.3299982812       -1.5939501041        2.3550365361
 H        -0.2548852903       -2.0786509971        0.9377290931
 H        -2.1384763324       -1.8016451283        0.7927475127
 H         1.0766854999        0.0122039536        1.1636134292
 H         0.4758385468        1.5415757561        0.9415318613
 H         0.1532798077        0.8837762384        2.5088761818
 H        -4.0315528115        2.8106353483        2.5056107720
 H        -4.1010886465        1.5364343548        3.5432416502
 H        -5.1125309945        3.2936826654        7.3229868006
 H        -6.3493386601        4.5606226987        7.0589565057
 H        -2.7910621582        5.9979440901        5.7432182761
 H        -3.0938979841        4.5763688929        6.8231621482
 H        -4.3958945411        5.7899365921        6.6240550834
 H        -3.8447271483        5.4444257745        2.6425479260
 H        -5.4016536912        4.9374547383        3.1177680056
 H        -4.8010271713        6.3668620548        3.8986869429
 H        -8.0581686531        2.7370112085        6.1353496551
 H        -7.3552776337        2.2135943669        7.6476362820
 H        -7.9986818966       -0.1246113807        3.2384295275
 H        -9.2530157185       -1.3849622322        3.6796789219
 H        -6.3112364852       -1.5667759364        6.4772228361
 H        -6.7674081698       -1.4437774703        4.8375749182
 H        -7.8814720078       -2.2781549821        5.9063700659
 H        -9.1544993887        0.7020113313        7.6933048215
 H        -8.9598725943       -0.9815608997        7.7785293601
 H        -7.6623546903       -0.1571221971        8.3645826310
 H       -11.1230011233        0.1259275150        3.4007211574
 H       -10.0094008616        1.4456724670        2.8160238097
 H        -9.8238407101        0.6548705926       -1.3894177250
 H       -10.4043598086       -0.6144527049       -2.4880325385
 H       -11.3794893464        0.7913278458       -2.1319620121
 H       -12.2929958358       -2.1062399346        1.5317742423
 H       -13.4495654006       -1.3058921393        0.6278016057
 H       -12.9092988493       -0.5758040632        2.2213941851
 H       -13.0860063365        1.2225585981        0.1349815697
 H       -12.4352514167        1.7154507474        1.6678714504
 H       -11.4945260451        1.9600031177        0.2864469094
 Na        3.6298774624       -0.4947001775       -2.9639222768
