155

 C         4.9518621010        0.6830391496        1.2950225810
 C         4.5119438789        0.7624534571       -0.0824519627
 C         4.5899630754        2.2495791248       -0.8084541035
 C         5.5417327920        2.0510694458       -2.0247023900
 C         6.9567668737        2.4832299663       -1.9273403149
 C         3.0646527904        2.3932100931       -1.1862287209
 C         5.0832478164        3.4946208179        0.1302898540
 O         4.1145607588       -0.2446030638       -0.6503525973
 O         5.0627214010        1.5403460244       -3.0110285166
 C         7.9873184712        1.4050532011       -2.3604051930
 C         8.2449152723        0.3479279942       -1.2991624367
 C         9.5590857641       -0.5869114789       -1.4893035918
 C         9.2036979698       -1.5204460315       -2.7095259252
 C         8.1548666589       -2.6073921544       -2.4211034392
 O         7.4050105274       -0.0271344515       -0.4894844356
 O         9.6422485355       -1.1754376387       -3.8037868130
 C        10.8141500391        0.2238247002       -1.9112512632
 C         9.8271426053       -1.4788024414       -0.2173629307
 C         7.5922499459       -3.2073057280       -3.7060460780
 C         6.1327476712       -2.8796609450       -3.9593171422
 C         5.2282098669       -4.0572579476       -4.3819324749
 C         3.8090095223       -3.4449645625       -4.6477678048
 C         3.1733841995       -3.4353100896       -6.1131857080
 C         5.7765096060       -4.7172941759       -5.7088563261
 C         5.1260905584       -5.0375932257       -3.2046029592
 O         5.6184179141       -1.7745027684       -3.7066210899
 O         3.1909810635       -2.9569872738       -3.7361003127
 C         1.8800973769       -2.5719094748       -6.2833119341
 C         1.9935225862       -1.2663710777       -5.5879022001
 C         0.6972081012       -0.5137039193       -5.0740260205
 C         0.3281942413       -0.6198897205       -3.5919261669
 C        -1.0759351127       -0.7858411902       -3.0120371232
 O         3.0728355246       -0.7265980492       -5.3889621999
 O         1.2988594088       -0.4424118476       -2.8970096158
 C         1.0267810673        1.0254069153       -5.3739695536
 C        -0.5223431125       -0.9864582546       -6.0081189723
 C        -1.1021183826       -1.2843520390       -1.6095728133
 C        -1.3625416769        0.0431464815       -0.5743720117
 C        -1.2049469550       -0.1509484741        0.9461648317
 C        -2.3534612015        0.7708785599        1.5346725546
 C        -2.0636333719        1.7646153433        2.7241535966
 C        -1.4322294280       -1.5894510249        1.4283562109
 C         0.2638074453        0.3692953133        1.2613298521
 O        -1.5363889263        1.1452200435       -1.0771223176
 O        -3.5099930222        0.6240250571        1.1444456597
 C        -3.3562583904        2.4505609215        3.2132952865
 C        -3.0147848316        3.4256055669        4.2907442400
 C        -4.1088532099        4.5237558409        4.6418824333
 C        -5.5069184808        3.8075793712        4.7937256219
 C        -5.8876300600        3.3809907883        6.2614176028
 O        -2.1110124616        3.2829053131        5.0556717492
 O        -6.2735258627        3.7797314514        3.8695326957
 C        -3.6837744411        5.0661515527        6.0284098681
 C        -4.0885487290        5.6387099004        3.5715888247
 C        -7.1817968135        2.4909771284        6.3141314166
 C        -6.8387346547        1.0126705815        6.0149989136
 C        -7.8723691354       -0.1188348245        6.2457759151
 C        -9.1088464413        0.2706101014        5.2184482887
 C        -8.9026492826       -0.2612197514        3.7489995146
 C        -7.2078609656       -1.4296544832        5.8486098801
 C        -8.5054643318       -0.1879838920        7.6887106240
 O        -5.9210086337        0.7609192313        5.2676980723
 O        -9.9682154853        1.0055230576        5.5198870230
 C        -9.9936136246        0.3726083418        2.8585757857
 C       -10.0835916655       -0.2264122303        1.4402770596
 C       -11.5294451895       -0.2388743990        0.7553708937
 C       -11.2958486155       -0.8927951445       -0.5969510349
 C       -10.8924504828        0.0658615105       -1.7134774052
 O        -9.1153449577       -0.7039459253        0.9376304180
 O       -11.5684882009       -2.0185081189       -0.8186188446
 C       -12.5997841791       -1.0995560797        1.4907109184
 C       -12.0709118575        1.1466304361        0.6833262391
 H         4.9165136357       -0.2691056713        1.7158283328
 H         6.0721007694        0.8748097507        1.1601524762
 H         4.6348608892        1.4769046186        1.9730011782
 H         7.0124639918        3.2879019956       -2.7026941170
 H         7.1562104203        2.8165915237       -0.8992191790
 H         2.9334384440        3.0796012065       -2.1076914565
 H         2.4478342715        2.7065929191       -0.3500792575
 H         2.8071091915        1.4722731397       -1.6501894404
 H         5.8868270942        3.0996130156        0.7777546247
 H         5.3913381625        4.2718245868       -0.4638934494
 H         4.1263578147        3.6104785958        0.6973058731
 H         7.5433730259        0.8008543103       -3.1620925282
 H         8.8006553099        1.9711908194       -2.7488677482
 H         8.3819883821       -3.4131249797       -1.6817032958
 H         7.2642599607       -2.1549573991       -1.9291154152
 H        10.6382871768        0.7146069535       -2.8354084543
 H        11.6934186494       -0.4366394061       -1.9855915287
 H        11.0756151672        0.9442830943       -1.0789038160
 H        10.4108845210       -2.3443114034       -0.4427688744
 H        10.4366074828       -1.0297072424        0.4701232374
 H         8.9535487413       -1.9090928827        0.2244485299
 H         7.6750550869       -4.3512739986       -3.8084460276
 H         8.1698157048       -2.8361317904       -4.5454994541
 H         3.7679169052       -3.0178061939       -6.9108471189
 H         2.9174101554       -4.3743289136       -6.5236186848
 H         5.6063803264       -4.1203309974       -6.6417300909
 H         5.3280065445       -5.7177301577       -5.8388799620
 H         6.8415587524       -4.8608442620       -5.5884879869
 H         6.1169432770       -5.4212574312       -3.0377752546
 H         4.5802939083       -4.5520281834       -2.4167902930
 H         4.5389280603       -5.9131066836       -3.3470011204
 H         1.8020035419       -2.2573799225       -7.3074577747
 H         0.9702250305       -3.0236677257       -5.9509232182
 H        -1.7028729170        0.1559452329       -2.9916253316
 H        -1.5851875351       -1.4726729580       -3.7263245754
 H         1.9218830376        1.3582898078       -4.9380197246
 H         0.2551371262        1.8112493009       -5.3594837671
 H         1.2267394765        1.1212233130       -6.4531732283
 H        -1.2722083188       -0.2772574526       -5.7524644401
 H        -0.4144263032       -0.9457104307       -7.0845990367
 H        -0.8097151335       -2.0439775123       -5.8138903300
 H        -0.1619693746       -1.8307305720       -1.3418362514
 H        -2.0596309239       -1.8308700761       -1.5100983359
 H        -1.7360765128        1.1007367727        3.5516540610
 H        -1.2212432893        2.5028828631        2.5250103759
 H        -1.5346014236       -1.6958618310        2.4813716440
 H        -0.5448082415       -2.2157877464        1.1746939127
 H        -2.3664013483       -2.0535045059        1.1097712747
 H         1.0008874897        0.1642745244        0.4504421658
 H         0.3158579508        1.4491565188        1.4493900977
 H         0.6326629934        0.0688077412        2.2385977545
 H        -3.9776213133        2.8933383285        2.4430761934
 H        -4.0759665817        1.7083051831        3.6231440213
 H        -4.9097181812        3.0601953124        6.7147268358
 H        -6.2354621199        4.3308114918        6.8199947174
 H        -2.6851834290        5.4216415921        5.9404372599
 H        -3.6418290927        4.3943000883        6.8549414245
 H        -4.2207533076        5.9840832506        6.3171097180
 H        -3.2084640050        6.3012306833        3.7804164348
 H        -3.9228127652        5.3104316808        2.5862775856
 H        -4.9408874001        6.3204136985        3.5531269581
 H        -8.0302478815        2.7668437266        5.5616994769
 H        -7.6744642684        2.6423295493        7.3040614491
 H        -7.9927646954        0.2467054773        3.3438660720
 H        -8.9846480740       -1.4259551305        3.6047124780
 H        -6.4875985844       -1.6261200523        6.6706140835
 H        -6.6443326525       -1.3520436380        4.9447090551
 H        -7.9486626731       -2.2464294724        5.6824773808
 H        -9.1515829770        0.6366831638        8.0355871318
 H        -9.1063745385       -1.0973218951        7.7139461160
 H        -7.6903118914       -0.3318944953        8.4156083784
 H       -11.0352581661        0.3972358889        3.2698310153
 H        -9.6305587653        1.3574205530        2.6936886354
 H        -9.9911151676        0.7505945702       -1.5576736478
 H       -10.7664899865       -0.5801044201       -2.5883969603
 H       -11.6943704763        0.7397941416       -1.8392820925
 H       -12.3674378364       -2.1819720386        1.2555406960
 H       -13.6189171820       -0.9469834171        1.1299843404
 H       -12.4833795892       -0.8534194795        2.5588907109
 H       -12.8650589134        1.0755950160       -0.0781440807
 H       -12.4173242813        1.5160955870        1.7038509516
 H       -11.3491050394        1.8363883346        0.3028729229
 Na        3.6621323233       -0.4891200944       -3.0425294971
