155

 C         3.6808011804        0.4124636601        1.3271882902
 C         3.8561944373        0.6046953944       -0.1472405677
 C         4.3170905023        1.9867025056       -0.7288999540
 C         5.5695920281        1.8349120953       -1.5823934896
 C         6.9219301401        2.7004703152       -1.5757851094
 C         3.2195560120        2.4923387660       -1.8867620435
 C         4.4296414855        3.2073794875        0.2899643198
 O         3.4667104009       -0.1503236622       -0.9672342682
 O         5.5090308183        0.9803923862       -2.4332538245
 C         8.0998351958        1.7892958540       -1.9216908620
 C         8.1676123964        0.5976501618       -0.9423978989
 C         9.3918698056       -0.3902562494       -1.1114835092
 C         9.2240532729       -1.2727747909       -2.4141432526
 C         8.4363353246       -2.6480005957       -2.3022489667
 O         7.3987968234        0.5060274858       -0.0365461773
 O         9.7692963391       -0.9510808432       -3.4576863247
 C        10.7588608029        0.4705424960       -1.2877615154
 C         9.4813388889       -1.2290544460        0.2555418828
 C         8.0153522229       -3.1954063903       -3.7558984817
 C         6.5226295113       -2.7818235638       -3.9943578693
 C         5.5486233540       -3.8681127624       -4.6451772361
 C         4.0180641592       -3.2331369855       -4.7030657313
 C         3.3237883805       -3.1918926882       -6.0090951914
 C         6.0051730958       -4.2555149483       -6.1744192143
 C         5.4939443651       -5.1380476810       -3.7517636816
 O         6.2163106310       -1.6080674444       -3.6967176761
 O         3.4888454884       -2.9595035482       -3.6376231714
 C         1.9857043780       -2.5017812205       -6.0608215783
 C         1.9473652687       -1.0411289713       -5.5793735470
 C         0.5731793782       -0.3869259358       -5.1215939178
 C         0.4710534284       -0.7100929212       -3.6156386338
 C        -0.8616655645       -1.0781429514       -2.9466859610
 O         2.9925883039       -0.4133873543       -5.4956722347
 O         1.5007906201       -0.6628457478       -2.9096176146
 C         0.7317573536        1.2229340170       -5.3094440988
 C        -0.6504425782       -0.7453875179       -5.9167962660
 C        -0.7343968714       -1.4354786853       -1.5018349687
 C        -1.4768822099       -0.1924126595       -0.7263838717
 C        -1.4915448826       -0.2287805323        0.8541121498
 C        -2.6049823075        0.8234386981        1.5219304084
 C        -2.2211263253        1.6190151529        2.7392048630
 C        -1.8727462008       -1.6014141815        1.4064354127
 C        -0.0936339669        0.1374210195        1.2238647956
 O        -1.7107248346        0.8549100636       -1.3776806147
 O        -3.7032462993        0.8149955329        1.0416078301
 C        -3.5043790317        2.3117335171        3.2153520621
 C        -3.1063645225        3.1855896726        4.4681389262
 C        -3.8677998880        4.5932257072        4.6487830716
 C        -5.3917129070        4.2034961342        4.6060207118
 C        -5.7916778664        3.2492814664        5.7292334648
 O        -2.3959520766        2.8658555972        5.3737656331
 O        -6.0769489316        4.4407160891        3.6802682393
 C        -3.4423626737        5.2922796535        5.8787879935
 C        -3.5713139660        5.5074690512        3.4144652476
 C        -7.0658813182        2.4116797504        5.7130810025
 C        -6.6762970152        0.9414663213        5.6868481615
 C        -7.7461594598       -0.0875037050        6.1072135311
 C        -9.0243432870        0.3219581864        5.1202355018
 C        -9.0875369939       -0.3383760896        3.6474039377
 C        -7.2335888577       -1.5512166966        5.9531368998
 C        -8.2547886606        0.2056160555        7.5618107436
 O        -5.6015640818        0.5864823294        5.4544351620
 O        -9.9437289327        0.9456766425        5.5362453207
 C       -10.0603263172        0.3941066938        2.6891826788
 C       -10.2212700486       -0.4586560156        1.3833545963
 C       -11.7048838960       -0.4926605908        0.6557026142
 C       -11.4328150934       -1.0745976644       -0.7544349858
 C       -10.6018690408       -0.2142448990       -1.7673712137
 O        -9.2815552797       -1.0313615907        0.8950822640
 O       -11.8928185161       -2.1023032433       -1.0943763303
 C       -12.5921938268       -1.3458592486        1.5542601699
 C       -12.1451423577        0.9771347217        0.7806874538
 H         3.0492371103       -0.4572648019        1.5159105843
 H         4.4630943365        0.4146980685        2.0735580337
 H         3.0304082873        1.2272695133        1.7506762614
 H         6.7190218919        3.4624970671       -2.3558821786
 H         7.1633870301        3.0127844618       -0.5452738994
 H         3.6455343217        3.2793930100       -2.5693464819
 H         2.4397275929        2.8947387960       -1.3622190342
 H         2.8604435153        1.6508244998       -2.4285081389
 H         4.8504027397        2.8844406422        1.3167064590
 H         5.1696123831        3.8989932471       -0.2083377654
 H         3.4749396285        3.6699042539        0.2005788927
 H         7.9078300970        1.3755856704       -2.8880351116
 H         8.9489396871        2.3836200455       -1.9091643325
 H         9.2284680562       -3.3585304525       -2.0755270596
 H         7.5728527953       -2.7588931413       -1.5624653820
 H        10.8619169628        0.8918648570       -2.2764338742
 H        11.6057553656       -0.2077006458       -1.2078247523
 H        10.8337590520        1.2154747266       -0.4819869858
 H        10.2296897274       -2.0267016510        0.2197087374
 H         9.6193598252       -0.6598326242        1.1669412660
 H         8.5958434987       -1.7196853839        0.5225021229
 H         8.3072725871       -4.2307170638       -3.8651163147
 H         8.6038341594       -2.5819305564       -4.4894833497
 H         3.8132859334       -2.6170876022       -6.7636549395
 H         3.2227458477       -4.1783178130       -6.4861871644
 H         5.9390305713       -3.3716222512       -6.8370010725
 H         5.4725992495       -5.1212630180       -6.4802230842
 H         7.1138515412       -4.4472614828       -6.2719274153
 H         6.3903846481       -5.6005374356       -3.5325943607
 H         5.1723971157       -4.8398033053       -2.7656368458
 H         4.8383221542       -5.7543486632       -4.2451550877
 H         1.4985593642       -2.5476292332       -6.9985647459
 H         1.2668738192       -2.9768635324       -5.4479408199
 H        -1.8148016028       -0.5118661564       -3.1729999956
 H        -0.9444609208       -2.1008446516       -3.4406859910
 H         1.4869250521        1.7644256423       -4.7686241017
 H        -0.1717143427        1.7014986252       -4.8814679934
 H         0.7954681950        1.5425158853       -6.2922031642
 H        -1.4927740969        0.0651299486       -5.8597563587
 H        -0.2792803449       -0.6763378605       -6.9606988101
 H        -1.1735074578       -1.6606523106       -5.7798493397
 H         0.2824260394       -1.4704591284       -1.1251935721
 H        -1.3256917489       -2.3525692898       -1.4656393442
 H        -1.7206815251        1.0868961937        3.5774666612
 H        -1.5690554839        2.4172625305        2.4056488275
 H        -1.9654350885       -1.5865924079        2.5480517829
 H        -1.2116345000       -2.4444217075        1.1314130494
 H        -2.7527852274       -2.0090433737        0.8951989248
 H         0.4706486457       -0.7785461844        1.2450739196
 H         0.4118795531        0.7467862067        0.5464748202
 H         0.1516246862        0.3182356132        2.2747975690
 H        -3.9441632474        2.9544338569        2.4305384559
 H        -4.1483927158        1.4863234084        3.5497302488
 H        -4.8985523735        2.6342500739        5.8601193848
 H        -5.7755163763        3.9090654462        6.6528040845
 H        -2.3184695932        5.2429024699        5.9567076757
 H        -3.7441574816        4.6774653082        6.7401712340
 H        -3.7434257168        6.3476380827        6.1105796109
 H        -2.5024205422        5.3488943324        3.0015558239
 H        -4.2938939458        5.3581837793        2.6385373047
 H        -3.5888263069        6.5221541456        3.5485617171
 H        -7.7091804524        2.5577473392        4.8819218254
 H        -7.6403613959        2.6277413510        6.6125012799
 H        -8.0739302510       -0.3719963451        3.2338709233
 H        -9.3937205356       -1.3341689907        3.8286280735
 H        -6.5937089418       -1.8454120255        6.8123152403
 H        -6.6990828187       -1.6546750310        5.0051841990
 H        -8.0714479526       -2.2446534852        6.0435094637
 H        -8.9400491432        1.0367510108        7.4639902620
 H        -8.7651196337       -0.6597958623        7.9442584688
 H        -7.4847510455        0.6533753889        8.1567728107
 H       -11.0270566958        0.5796042979        3.1221587083
 H        -9.7586195274        1.4722741011        2.5143085049
 H        -9.7062479359        0.2315221788       -1.2924644887
 H       -10.2729519706       -0.8216709329       -2.5510712335
 H       -11.2133727200        0.4942344639       -2.2601848300
 H       -12.3165127658       -2.3892166877        1.5946240124
 H       -13.6033416329       -0.9709176196        1.3041241094
 H       -12.4924663796       -0.9417963403        2.5053875599
 H       -13.0162460557        1.2747911654        0.2878185878
 H       -12.3117805771        1.2133493061        1.8553708272
 H       -11.3386228527        1.4892198612        0.3095433044
 Na        4.0184482153       -0.6786003215       -3.1466315876
