155

 C         3.4441077479        0.5930608286        1.2343309124
 C         3.7060821560        0.6610750415       -0.2448013032
 C         4.1777941724        1.9271796822       -0.9634192453
 C         5.6225129360        1.6351491752       -1.7462325019
 C         6.7903157992        2.5892525944       -1.3359400865
 C         3.2261875234        2.5553882112       -1.9991259886
 C         4.3633290457        3.0258557595        0.2079915245
 O         3.3826635292       -0.3011843839       -1.0087407729
 O         5.7272070486        0.7513368997       -2.5532763084
 C         8.1564556020        1.8782989538       -1.5880811756
 C         8.1999619047        0.6053209654       -0.7886561680
 C         9.4745896727       -0.3383965100       -0.9244677256
 C         9.0732090444       -1.0689271010       -2.3787548956
 C         8.3987954847       -2.5047972693       -2.2289528124
 O         7.2601114398        0.3307974458       -0.0309118294
 O         9.4485925842       -0.6091818584       -3.4024674514
 C        10.8059647288        0.5364813447       -1.0088176091
 C         9.4913610954       -1.3878489533        0.2470064304
 C         7.9212892730       -3.0111510593       -3.5846809737
 C         6.5488780221       -2.6539293007       -3.8122211717
 C         5.6555745527       -3.6767025388       -4.7334673452
 C         4.1440098336       -3.2136374724       -4.7987899452
 C         3.4160281573       -2.9860021679       -6.0858113456
 C         6.3483057346       -3.8487394116       -6.0718229897
 C         5.6317388023       -5.0146767228       -3.8495776875
 O         6.1180152090       -1.5960119271       -3.4957441679
 O         3.5396302529       -3.1334821345       -3.7267366836
 C         1.9998155059       -2.4275560426       -5.9688874701
 C         2.0426570131       -0.9901663556       -5.4975037306
 C         0.6900857583       -0.3351243476       -5.0763428173
 C         0.4646598776       -0.7569095957       -3.5854713878
 C        -0.8114778685       -1.2749815765       -3.0230589018
 O         3.0626689450       -0.3565859530       -5.3235666847
 O         1.4548553550       -0.6692305436       -2.9154171164
 C         0.7515743313        1.2257371644       -5.0261918245
 C        -0.4276074284       -0.8692678800       -6.1348932920
 C        -0.8338453322       -1.4239213433       -1.4465732651
 C        -1.4422319829       -0.2101838201       -0.7077427673
 C        -1.5201577107       -0.2283041691        0.8874954442
 C        -2.6002180356        0.7445979881        1.3363220538
 C        -2.2486497169        1.6223083714        2.5564067888
 C        -2.0109504676       -1.5842134024        1.4235406896
 C        -0.1371737629        0.0796066045        1.5168170704
 O        -1.8531919725        0.7683959494       -1.2361330905
 O        -3.6712250913        0.7843527016        0.7850654760
 C        -3.4888187284        2.2493078028        3.1986280999
 C        -3.0597713784        3.1461678770        4.4450890220
 C        -3.7541029485        4.5823184312        4.5740846134
 C        -5.3204040610        4.3123739758        4.6076645495
 C        -5.8267502257        3.5474260936        5.8138786261
 O        -2.1578817782        2.8362926198        5.2032347690
 O        -6.0993530865        4.6349314074        3.7354061984
 C        -3.3413975625        5.2971841469        5.8904994143
 C        -3.3290936815        5.3715704085        3.2895233197
 C        -6.9913685647        2.5415906053        5.4622799511
 C        -6.7105170519        0.9894657578        5.6797122772
 C        -7.8248570964       -0.1431032382        6.0684662541
 C        -9.0104835358        0.1754569247        5.0254418117
 C        -8.9853306841       -0.5408874029        3.6720823221
 C        -7.2503333002       -1.5701169316        5.9130290093
 C        -8.4083597614        0.1197652376        7.4716362782
 O        -5.5829138445        0.5256274521        5.3661480724
 O        -9.9394423943        0.9764029846        5.2489037945
 C       -10.0906659648        0.1283388214        2.8748950169
 C       -10.2588235506       -0.4632719433        1.4446445537
 C       -11.7247696266       -0.4750573392        0.6574066244
 C       -11.4032044931       -1.0646524774       -0.6572515736
 C       -10.4675268126       -0.3260548978       -1.5938062365
 O        -9.3141168428       -1.0428422604        0.9326690377
 O       -12.0228831772       -2.0579963433       -1.0379384443
 C       -12.7349612712       -1.4801866568        1.4552540018
 C       -12.2429790423        0.9330621799        0.5749016352
 H         3.5237376508       -0.4063905557        1.7091335565
 H         4.1558762006        1.2113502530        1.7570121820
 H         2.5051535353        0.8955242826        1.6411277844
 H         6.6278348709        3.5217277877       -1.8730014199
 H         6.7897618792        2.7110750382       -0.2608219108
 H         3.7373893789        3.4115615193       -2.2600441279
 H         2.1764717274        2.8276576008       -1.6208471381
 H         3.0397899216        1.8310655389       -2.8305262049
 H         5.2445656091        2.7924719650        0.6800355094
 H         4.2924637853        4.0010572612       -0.2554904501
 H         3.4947740548        2.9782408613        0.8937411210
 H         8.3360349693        1.7720629776       -2.6910077514
 H         8.9578609757        2.5701066300       -1.0952167408
 H         9.1438383381       -3.2522760160       -1.8363141248
 H         7.5653798207       -2.3739780807       -1.6031971902
 H        10.6963635183        1.1416135656       -1.9517426818
 H        11.6820676714       -0.0936308429       -1.0683030875
 H        10.8866273149        1.2311547605       -0.2039073463
 H        10.2054145609       -2.1980683565        0.1051263126
 H         9.6325044107       -0.9424038236        1.2429730374
 H         8.4965499905       -1.8599635704        0.5297550096
 H         8.0699462135       -4.1045301929       -3.5565681376
 H         8.4857988185       -2.6021127500       -4.4114701569
 H         3.8507306096       -2.5502177744       -6.9958420052
 H         3.1972953682       -4.0303364641       -6.3776328902
 H         6.4532956491       -2.8933590042       -6.5581087808
 H         5.7270981181       -4.5539365044       -6.6965735011
 H         7.3328704808       -4.2691719897       -5.9996530900
 H         6.6532863285       -5.4527847307       -3.9317023439
 H         5.6913595385       -4.7589211849       -2.8046869947
 H         4.8698398961       -5.7549317511       -4.2033864882
 H         1.2661587454       -2.4798235488       -6.8283778664
 H         1.4465544195       -3.0382617075       -5.1512322142
 H        -1.5359035360       -0.5126813323       -3.1997634566
 H        -1.0372823155       -2.1176472168       -3.6433775869
 H         1.6240079941        1.6303346928       -4.4997163042
 H         0.0330197867        1.7763573953       -4.4843664360
 H         0.8408136821        1.6083106233       -6.0869602508
 H        -1.3117659833       -0.3505957002       -5.9246357014
 H        -0.2180054252       -0.7416208693       -7.1856240403
 H        -0.8204515698       -1.9030566727       -5.9379955885
 H         0.2061486139       -1.5362266450       -1.1081061750
 H        -1.4573721426       -2.2574844231       -1.1277442022
 H        -1.7761241960        1.0259026927        3.2995308867
 H        -1.5416425332        2.4300432049        2.3280088012
 H        -1.8402172672       -1.6244275227        2.4688695914
 H        -1.4576061720       -2.4088059029        0.9479470654
 H        -2.9931670114       -1.9296469052        1.1285177549
 H         0.7939050329       -0.1698993226        0.9834010771
 H         0.0370980388        1.1580589691        1.6984297014
 H        -0.0305358604       -0.5126293245        2.3808621242
 H        -3.9753358828        2.9681827991        2.5449678335
 H        -4.0496511591        1.3682853548        3.5298048206
 H        -4.9029370043        3.2490355533        6.2769313079
 H        -6.3417651591        4.1229539329        6.5003974291
 H        -2.2520069151        5.4662015364        5.9765409106
 H        -3.6739198952        4.9008888462        6.8849202057
 H        -3.7508603299        6.2985299613        5.8332844297
 H        -2.5271986864        4.9103769655        2.8191748887
 H        -4.0751738585        5.6499064115        2.4969665080
 H        -2.8524264046        6.3893857966        3.5692935707
 H        -7.4325617125        2.6623172186        4.4427878849
 H        -7.6975134111        2.8579294923        6.2255404025
 H        -7.9629093305       -0.4216040787        3.2653282079
 H        -8.9855598733       -1.6339610852        3.8702118111
 H        -6.5267793197       -1.8174539920        6.6544055235
 H        -6.7502494333       -1.6077693727        4.9428104857
 H        -8.0142054953       -2.3151822391        6.0381875339
 H        -8.9694274592        1.0478978533        7.5814394846
 H        -9.0748942632       -0.7360961225        7.6321765034
 H        -7.5857546794        0.0728285119        8.2028139835
 H       -10.9937561990        0.2542594783        3.5027747419
 H        -9.7807486677        1.1461481074        2.8177068166
 H        -9.4812846109       -0.1824230742       -1.2870023548
 H       -10.4522692014       -0.8626596642       -2.5601154391
 H       -11.0394886645        0.6058763701       -1.9156055581
 H       -12.3747020878       -2.4362736467        1.1223701348
 H       -13.7226142833       -1.2110314880        1.1355998557
 H       -12.5611045765       -1.3961961225        2.5981275945
 H       -13.0312994181        1.0349430723       -0.2216959218
 H       -12.7751137546        1.1122810503        1.4559230430
 H       -11.4148530783        1.6944164065        0.4589355873
 Na        3.9127929999       -0.7090878861       -3.2680832819
