155

 C         3.4366031543        0.5108933904        1.1616248952
 C         3.5726029365        0.5873976652       -0.3582514890
 C         4.0574079031        2.0384756281       -0.8891307827
 C         5.5246458165        1.8409326620       -1.6087623825
 C         6.7657723258        2.7027511351       -1.2518222323
 C         3.2307476380        2.2937639031       -2.1334250232
 C         4.1538511573        3.2178726022        0.0729883905
 O         3.5730651199       -0.3952391725       -1.0023223876
 O         5.6010088357        1.0202901513       -2.5328336617
 C         8.1360886337        1.8565745267       -1.3722390036
 C         8.1288852266        0.4658620802       -0.6177563900
 C         9.5147476795       -0.3558750280       -0.7722632053
 C         9.0870228226       -0.9550183176       -2.1846824032
 C         8.4972525893       -2.3676366765       -2.1693830355
 O         7.2164390736        0.0711980336        0.0532896010
 O         9.1635615442       -0.2473551790       -3.1929819788
 C        10.8103965320        0.3943476593       -0.9815972068
 C         9.6011290894       -1.3816579188        0.3708202176
 C         8.0372918849       -2.9265705205       -3.4984773234
 C         6.4742897067       -2.6646378498       -3.7807489594
 C         5.7991005859       -3.6818469073       -4.7400777113
 C         4.2844889787       -3.1211732873       -4.7825535831
 C         3.6937750655       -2.8821511654       -6.1810131399
 C         6.4659749461       -3.6175843571       -6.1266425132
 C         5.7661566693       -5.0986815386       -4.1250017186
 O         5.9122359058       -1.6630438072       -3.2972934969
 O         3.5962314243       -3.1067169005       -3.7874950030
 C         2.1952250132       -2.4314142948       -6.0271245647
 C         2.0913602751       -0.9563233100       -5.4938984334
 C         0.7407196081       -0.3599534836       -5.0102488084
 C         0.5549249857       -0.8459789897       -3.5097148309
 C        -0.8995183486       -1.2146090812       -3.0147795068
 O         3.1168599631       -0.2983075989       -5.4558358504
 O         1.3624387130       -0.7572065361       -2.6182023047
 C         0.7945421239        1.1167472309       -5.0763640120
 C        -0.4576832923       -0.8256592788       -5.8630593365
 C        -0.9679071162       -1.5023093951       -1.4751244321
 C        -1.5093991078       -0.2598714401       -0.7027984821
 C        -1.5530824177       -0.3388251573        0.8590334582
 C        -2.6205617012        0.7003600224        1.3203675611
 C        -2.3610461337        1.6384452212        2.4978144777
 C        -2.0055162029       -1.7395600106        1.2368830746
 C        -0.1124194675       -0.1662629009        1.4099982151
 O        -1.7818485562        0.7385520978       -1.3067828423
 O        -3.6564377995        0.8337422066        0.6978135375
 C        -3.5759103676        2.2446903197        3.2856955326
 C        -3.0260384287        3.0765764879        4.4328769910
 C        -3.7375199736        4.5415242697        4.5737029522
 C        -5.2558355879        4.2450124785        4.6742466206
 C        -5.9159829360        3.4342294115        5.7713208701
 O        -1.9876000487        2.8481898207        5.0234405296
 O        -6.0531501132        4.6880113817        3.8431987538
 C        -3.1862014333        5.2152571328        5.8704140513
 C        -3.4579543429        5.3253791206        3.2628018520
 C        -7.1300599203        2.5182646164        5.4223784589
 C        -6.6397416788        1.0332690511        5.5385277779
 C        -7.7750108796       -0.0328234979        5.9386242945
 C        -8.9813030482        0.3129693256        5.0226237019
 C        -9.1386357650       -0.5065827981        3.7146716297
 C        -7.1930485409       -1.4316014039        5.8036307694
 C        -8.2361186032        0.3091723951        7.4040386765
 O        -5.4983049801        0.6946081594        5.3391917294
 O        -9.8195831086        1.1268097112        5.3281389848
 C       -10.3708469974       -0.1913567866        2.8240475590
 C       -10.3127522689       -0.6220441844        1.3641932734
 C       -11.6822511076       -0.6512599066        0.6020206290
 C       -11.4462303398       -1.1393249910       -0.8474543519
 C       -10.5172482397       -0.4045656594       -1.6862730237
 O        -9.2988297871       -1.1704217784        0.9763746583
 O       -12.0858005281       -2.0794958812       -1.2498997098
 C       -12.7307772725       -1.4411868604        1.5033587474
 C       -12.2053185319        0.8905800518        0.5894679549
 H         2.9571325542       -0.3224515266        1.5423742079
 H         4.3083626138        0.7485223538        1.7801972436
 H         2.7501340187        1.2805605216        1.5265624509
 H         6.9421092389        3.5830559040       -1.9468611839
 H         6.6563506031        3.1210073111       -0.2159179197
 H         3.5017307545        3.3439867723       -2.5623411246
 H         2.1882045177        2.1658659782       -2.0112636884
 H         3.4778184652        1.4995744449       -2.8022949795
 H         4.5110748775        2.8065752084        1.0889743726
 H         4.7781376424        3.9444199184       -0.4371619435
 H         3.1822165140        3.7517845492        0.2880454591
 H         8.3337722377        1.7857851039       -2.4283827857
 H         8.8893943753        2.4553971778       -1.0000433599
 H         9.4174581037       -2.8686247436       -1.8433306858
 H         7.6302000984       -2.3565926565       -1.3799601353
 H        10.7619956613        1.0326019995       -1.8151062405
 H        11.5843854103       -0.3878760584       -1.0404866374
 H        11.0206475288        1.0653683642       -0.0912563214
 H        10.2667493523       -2.2061041174        0.1307170310
 H         9.9673689454       -0.9521600091        1.2828455887
 H         8.6639259766       -1.7851177131        0.6534150773
 H         8.3311164172       -3.9724523058       -3.5945806672
 H         8.6456670901       -2.3176814328       -4.2014626689
 H         4.1833314503       -2.0211005078       -6.6348948807
 H         3.7555705931       -3.6415164959       -6.9434386491
 H         6.5367016633       -2.5295264790       -6.4321497763
 H         5.9769401288       -4.1186877856       -6.9187997324
 H         7.4521269540       -4.1218971486       -6.0111097967
 H         6.7581351503       -5.4971845446       -3.8543182888
 H         5.1789400616       -5.0888296519       -3.1814784115
 H         5.3187847841       -5.6806715513       -4.9228680609
 H         1.5827468045       -2.4192665499       -6.9119475737
 H         1.7348801381       -3.1423350981       -5.4035102274
 H        -1.4200546412       -0.2268503125       -3.1349244217
 H        -1.4559532491       -1.9350581103       -3.6459423297
 H         1.5416812737        1.4815002043       -4.3756181231
 H        -0.0282240457        1.5919465617       -4.4862808818
 H         0.9509741446        1.6090806289       -6.0047225587
 H        -1.4779131692       -0.6253183661       -5.5448016601
 H        -0.2995605221       -0.4058464980       -6.8468326866
 H        -0.4604849921       -1.8845053071       -6.0217696576
 H         0.0862640559       -1.7873772409       -1.2161466804
 H        -1.6340225128       -2.3751518162       -1.2401673893
 H        -1.5907520761        1.1622810383        3.1841427442
 H        -1.8522613410        2.5562089405        2.1451299591
 H        -2.4149144499       -1.6732160608        2.2273483984
 H        -1.3287491958       -2.5455710571        1.2330464498
 H        -2.7974540601       -2.0725253862        0.6134282854
 H         0.6413107412       -0.8063270769        0.9231027594
 H         0.2372403823        0.8327675920        1.1721869194
 H         0.0352082203       -0.3483657029        2.5299215869
 H        -4.1718928234        2.8721194513        2.6278869824
 H        -4.0711192406        1.4571735191        3.8337218435
 H        -5.1132009871        2.9366214799        6.4020077650
 H        -6.3720051304        4.2895986743        6.4607836673
 H        -2.1839379232        5.4576566948        5.7265247058
 H        -3.2936624739        4.6477619731        6.7296253049
 H        -3.7150485639        6.1300380558        6.0461488041
 H        -2.7606882328        4.9462204641        2.4475463321
 H        -4.3902145100        5.4272709971        2.7790169501
 H        -3.1958207682        6.3003232082        3.5006557426
 H        -7.2777004736        2.7434456437        4.3348404180
 H        -8.0592307832        2.8303774432        5.9702865738
 H        -8.1800140980       -0.3041401119        3.2021412698
 H        -8.9095872011       -1.5648086050        3.9664499663
 H        -6.3248554452       -1.4604655196        6.5093605214
 H        -6.7903940978       -1.7579205788        4.8715840213
 H        -7.9043741793       -2.1466022512        6.2500539610
 H        -8.3099192047        1.4198273411        7.5373060303
 H        -9.2355310139       -0.0957262746        7.6094770219
 H        -7.5190861949       -0.2198094717        8.0800674098
 H       -11.2800089192       -0.5212077771        3.3238222375
 H       -10.4743720804        0.9324396950        2.8056097926
 H        -9.4705523040       -0.7749748425       -1.3563918838
 H       -10.5661684440       -0.5881385777       -2.7696561569
 H       -10.6379542145        0.6347847722       -1.5449047236
 H       -12.2437440988       -2.3607305374        1.9162646960
 H       -13.6090544426       -1.6713285913        0.8543464981
 H       -12.9237252326       -0.7603136058        2.2781532851
 H       -13.2281331079        0.9029595903        0.2538022409
 H       -12.2723575255        1.3362516240        1.6822338915
 H       -11.5545618454        1.5581103982        0.0686781180
 Na        3.7891001417       -0.6203849881       -3.1404635118
