155

 C         4.4305731089       -0.5056615392        2.0247577601
 C         3.5413411779       -0.2827188577        0.8326402078
 C         3.3776960356        1.1918950638        0.4161921702
 C         4.5640204856        1.3919590982       -0.6169320857
 C         5.5640711888        2.5061533649       -0.4388868857
 C         1.9458220875        1.3595851622       -0.1737114552
 C         3.5081735259        2.1881953883        1.5471906617
 O         3.0381618297       -1.2449709230        0.1535673698
 O         4.6900795590        0.6205359099       -1.5789944632
 C         7.0277381002        2.1374651284       -0.6297368829
 C         7.4839178663        1.2876522298        0.5218470389
 C         8.8624148841        0.5146312702        0.4068084279
 C         8.8701683909       -0.3108623125       -0.8988707605
 C         8.3979635175       -1.7862126865       -0.8168078670
 O         6.7949219035        1.1267802530        1.5269363684
 O         9.2696964412        0.2183168217       -1.9293368271
 C         9.8709173811        1.6869022936        0.4127920594
 C         9.0662008375       -0.3148547412        1.6547897013
 C         8.1975247820       -2.4182091067       -2.2074181638
 C         6.7236705558       -2.1660005508       -2.6443047655
 C         6.4608150506       -1.8851723497       -4.2385987073
 C         4.9348517988       -1.6603798460       -4.4154594671
 C         4.4923641222       -0.4801791200       -5.4613352641
 C         7.2522551832       -0.6185252449       -4.7276969127
 C         6.8648436222       -3.1662732135       -4.9525541506
 O         5.7264898273       -2.0751136881       -1.9481224102
 O         4.1413944749       -2.4083863226       -3.9292114728
 C         2.8325070337       -0.4484157916       -5.7785494237
 C         2.1411579844        0.2301140119       -4.6387645214
 C         0.5641244336        0.1913870790       -4.6400276015
 C         0.1960893752       -1.0282219531       -3.7955550927
 C        -1.3291391623       -1.5206478120       -3.8030842217
 O         2.7306340014        0.7162313926       -3.6585433358
 O         1.0109238814       -1.6109089346       -3.1162275736
 C        -0.0508210787        1.5413644854       -4.1223258635
 C         0.0180144590       -0.0544581868       -6.1262234763
 C        -1.7840590392       -1.9998084752       -2.4877562628
 C        -1.3153060024       -0.9808957043       -1.3674085011
 C        -1.6213520230       -1.3872902959        0.0286819892
 C        -2.6654184452       -0.2242838638        0.6239359094
 C        -2.0728373468        0.7737206404        1.6062532386
 C        -2.4511073973       -2.6566264782        0.2637791820
 C        -0.3476578741       -1.5691962538        0.7680723583
 O        -0.8455562052        0.0816511460       -1.7292978818
 O        -3.7357992691       -0.2117984378        0.1239462952
 C        -3.2822528058        1.8010145305        2.0916302979
 C        -2.6538663827        3.0694346510        2.5652250578
 C        -3.5086881629        4.3632578677        2.8765743796
 C        -4.8968342461        3.8635311876        3.3939307230
 C        -5.0888402082        3.4490709766        4.8764937040
 O        -1.4798275812        3.0454983668        2.7892544687
 O        -5.7868481915        3.6301770352        2.5939242962
 C        -2.8088911101        5.2411618895        3.9660532775
 C        -3.6735006974        5.1166265568        1.5665063780
 C        -6.2437366108        2.4170175541        5.0157087815
 C        -5.9263877069        0.9546773200        4.6689237464
 C        -7.0797291402       -0.0509521843        4.9596717342
 C        -8.2747801420        0.1855842729        3.9448654456
 C        -8.9352559194       -1.0026570032        3.1844499427
 C        -6.5625442814       -1.5748211645        4.9177860591
 C        -7.6218868846        0.2652143539        6.3836625966
 O        -4.8769106777        0.5958408278        4.1961943271
 O        -8.6701615988        1.3294583615        3.8257836028
 C       -10.2832124748       -0.6251304525        2.5624843678
 C       -10.4329705428       -1.1941780565        1.1386332946
 C       -11.7556508739       -1.0690019893        0.3804799164
 C       -11.7409743874       -1.7522103012       -0.9699992445
 C       -10.7490204314       -1.4606066702       -2.0679590042
 O        -9.5328209199       -1.7579348477        0.5310468415
 O       -12.6902677868       -2.5094580962       -1.1888433097
 C       -12.9614835252       -1.6307635062        1.2803096501
 C       -12.0633675164        0.4658816209        0.1981410801
 H         4.4869196231        0.2307217410        2.8348536608
 H         4.1967947939       -1.4212642907        2.5022599934
 H         5.4693692486       -0.5377592915        1.7829816744
 H         5.3776467906        3.2560086060       -1.1546165950
 H         5.5430062794        2.9615176744        0.5215004977
 H         1.4921268402        2.2939788908        0.1732243955
 H         1.2193476851        0.6465989829        0.2587986892
 H         1.9908776473        1.2847591837       -1.2552888925
 H         4.4648481680        2.1636396783        2.1300310563
 H         3.3649424691        3.1814932003        1.1026475348
 H         2.7730177965        2.0419824767        2.3133586108
 H         7.4831230582        1.7138747912       -1.6025446532
 H         7.7114145977        3.0314734027       -0.5279896965
 H         9.0744543120       -2.3739824433       -0.2736444812
 H         7.3576912684       -2.0449634147       -0.4298451904
 H        10.0252404000        2.0173506163       -0.6420393277
 H        10.8101449927        1.3371202521        0.7568529412
 H         9.6629063273        2.5381993576        1.0463862148
 H        10.0733799682       -0.7557557473        1.6282319518
 H         8.9698381498        0.2972103132        2.5614848978
 H         8.2094990467       -1.0454594414        1.7869582159
 H         8.3815038163       -3.5034180165       -2.2959328525
 H         8.8545631432       -1.9004162528       -2.9536181416
 H         4.7476887302        0.5103837924       -5.1818778050
 H         4.9528483236       -0.7606778217       -6.4185720709
 H         6.8780695007        0.1278766841       -4.0376190064
 H         6.9861810382       -0.3198364324       -5.7428219570
 H         8.3054987606       -0.4986308053       -4.6531027245
 H         7.7315968117       -3.6544476462       -4.5193604730
 H         6.1029157476       -3.9868527612       -4.8781897415
 H         6.9860088056       -2.9021614886       -5.9968824939
 H         2.7770800319        0.2065554625       -6.6757670966
 H         2.4298838760       -1.3832886784       -6.0904890986
 H        -1.8208824716       -0.7785924434       -4.4271107578
 H        -1.3521860626       -2.4048762553       -4.5271725718
 H         0.3731355557        1.8885816743       -3.1604003714
 H        -1.0986059620        1.3511331100       -3.9979141797
 H         0.2162710640        2.3660687240       -4.8717110365
 H        -1.0949674337        0.1922448615       -6.1828829944
 H         0.4767468547        0.6213757630       -6.7817189598
 H         0.0711744840       -1.0436837754       -6.4267825176
 H        -1.1740467397       -2.8471715969       -2.2639682649
 H        -2.8255411474       -2.2164780978       -2.4197637436
 H        -1.7210137619        0.2948861599        2.5235093647
 H        -1.3213179768        1.3933495023        1.1315988803
 H        -2.8646263117       -2.5113357768        1.2426014346
 H        -1.8361923672       -3.5560142492        0.2134787152
 H        -3.1818452543       -2.9353504912       -0.4876448072
 H         0.2904446249       -2.2155499560        0.1228825912
 H         0.1820950323       -0.6144320363        0.8670316076
 H        -0.5428154169       -2.0524209810        1.6854796230
 H        -3.9942099869        1.8983573973        1.2503603774
 H        -3.6705773553        1.3566013799        3.0329243667
 H        -4.1641834010        3.0072655691        5.2255585459
 H        -5.3350989055        4.3144537559        5.5176992749
 H        -1.6877970636        5.3192491936        3.8050661011
 H        -3.0026029438        4.9744404433        5.0084194460
 H        -3.0953498134        6.3223257113        3.9010399719
 H        -3.8301276588        4.4464591810        0.7789875229
 H        -4.3978730676        5.9470596125        1.6640498819
 H        -2.7164202319        5.6245566492        1.4441479583
 H        -7.1817573551        2.7642723861        4.5314048671
 H        -6.5066880544        2.3773898263        6.1130674110
 H        -8.2702122663       -1.4558654476        2.3288661298
 H        -9.1010705967       -1.8405833083        4.0147272138
 H        -5.6171836740       -1.6237569293        5.4983194623
 H        -6.2306400462       -1.7871349375        3.9273400655
 H        -7.2256037583       -2.3303367322        5.3858635560
 H        -7.9538405557        1.2889731251        6.3502733916
 H        -8.4044866081       -0.3859868477        6.6543252356
 H        -6.8745305582        0.2900050062        7.1692560888
 H       -11.0656253809       -0.7061617012        3.2490090726
 H       -10.0835863914        0.4496285157        2.5259135596
 H       -10.0869764145       -0.6312847823       -2.0682958629
 H       -10.2849132546       -2.4008328063       -2.3772659732
 H       -11.4255498699       -1.1567242678       -2.9630203573
 H       -12.8525768283       -2.6790893154        1.3744584247
 H       -13.8397132131       -1.2271542021        0.8399261583
 H       -12.8779559223       -1.2988551001        2.3632529853
 H       -11.5260023843        0.8180748934       -0.7473936258
 H       -13.1172186077        0.5964072526        0.1499025977
 H       -11.6663060585        0.9837304657        1.1103573240
 Na        3.1990380716       -1.1533831318       -2.3126813225
