155

 C         4.1399082663       -0.9017143290        2.1433254974
 C         3.4483882761       -0.3156146062        0.8932122702
 C         3.4401921047        1.2861774795        0.5552369201
 C         4.5060973922        1.5200133479       -0.6942626111
 C         5.6085797427        2.6205552248       -0.5132696067
 C         2.1486275802        1.4742135955       -0.2128020439
 C         3.5535443097        2.1492142401        1.8194437625
 O         2.9803482049       -1.1352938651        0.2062974768
 O         4.4511948175        0.9199366772       -1.7267486260
 C         7.0448452987        2.1129724785       -0.4133596873
 C         7.5634076570        1.2396298365        0.8243717147
 C         8.9720724960        0.6134252747        0.6364757458
 C         8.8395640169       -0.1908463700       -0.7048503867
 C         8.5006938576       -1.6544940491       -0.7467683199
 O         6.8776042686        0.8868726680        1.7434005673
 O         9.0968307719        0.4297704423       -1.7034593061
 C        10.1277487304        1.6454187017        0.5276524548
 C         9.3268001794       -0.2516290404        1.8849458579
 C         8.1675679311       -2.1399881928       -2.1752005301
 C         6.7013495848       -1.8831277791       -2.5544396671
 C         6.4386359865       -1.7786486242       -4.2099977486
 C         4.8426596982       -1.5438828351       -4.5294793373
 C         4.4232951120       -0.4806994344       -5.5790739289
 C         7.2793864753       -0.6206295247       -4.7091529535
 C         6.8356866725       -3.0173206618       -5.0300888831
 O         5.7791092566       -1.9109933932       -1.7959695016
 O         3.9878818900       -2.3894141378       -4.2134403145
 C         2.9662876709       -0.4828856241       -5.8886630292
 C         2.1313968988        0.1779348767       -4.7740121292
 C         0.5621487949        0.1992347241       -4.7802409097
 C         0.1987322485       -1.0511489182       -3.8459809064
 C        -1.2878910247       -1.5582233837       -3.9923550925
 O         2.7035317402        0.7042397282       -3.8349222310
 O         1.0177087025       -1.5222935983       -3.0462856826
 C         0.1331761684        1.5294401555       -4.0203529011
 C        -0.0858414067        0.1456811968       -6.1794688257
 C        -1.6808109737       -2.1258051996       -2.5910701664
 C        -1.4143340684       -1.2737877658       -1.4206761390
 C        -1.7794209182       -1.6348924480        0.0580610138
 C        -2.8066139965       -0.4171404788        0.6472101964
 C        -2.1483521099        0.8293913546        1.3236949451
 C        -2.5633961132       -2.9451375399        0.0989221367
 C        -0.5030687995       -1.6438790063        0.9338493214
 O        -0.9329871901       -0.1466092593       -1.5315382483
 O        -3.9503234947       -0.4246087898        0.2520546298
 C        -3.0040070945        2.0374791866        1.6369528690
 C        -2.4642186233        3.1675944545        2.4523578587
 C        -3.4827565087        4.3018083415        2.7448579229
 C        -4.8314168109        3.7399968455        3.3258529638
 C        -4.9471946061        3.3260438660        4.7584602853
 O        -1.2787213559        3.2769761956        2.7743135939
 O        -5.7307475972        3.5225084300        2.5430958349
 C        -2.8165138513        5.3236589425        3.6910561693
 C        -3.7508605207        5.0390490630        1.3944892575
 C        -6.1640194838        2.4905824811        5.0348788211
 C        -5.9737524613        0.9671497458        4.7534990855
 C        -7.1580630091       -0.1153987206        4.9981510940
 C        -8.2422468807        0.1310561686        3.8283812602
 C        -8.7550171569       -1.1876999599        3.0826422722
 C        -6.4421356929       -1.4979574695        5.0430769658
 C        -7.8406301206        0.1583823243        6.3790769310
 O        -4.9711862401        0.5553830639        4.2039360037
 O        -8.7557936687        1.2148644986        3.6903850037
 C       -10.2196590370       -0.8566231800        2.5135125891
 C       -10.3719520062       -1.2757581914        1.0715125566
 C       -11.8394020235       -1.0149664260        0.4152388376
 C       -11.9235804568       -1.7923924123       -0.9525537956
 C       -10.7615074211       -1.5443254751       -1.9052317719
 O        -9.3962076803       -1.5481752160        0.4185356812
 O       -12.7952240365       -2.5490580453       -1.2598986049
 C       -12.9345386345       -1.5759256539        1.3069392162
 C       -12.0310056182        0.5683468681        0.1716000379
 H         3.8349838666       -0.3872937018        3.0288010228
 H         4.0175256975       -1.9694874375        2.3435224523
 H         5.1938809879       -0.6017567901        2.2677353480
 H         5.6166518084        3.2888440116       -1.4281715152
 H         5.4405822865        3.3076450469        0.3544085153
 H         2.0850726657        2.5092511238       -0.4268003194
 H         1.2788010573        1.2230579328        0.4414655464
 H         2.1215376947        0.8824892163       -1.1068730602
 H         4.5034136204        1.9264292852        2.2186859798
 H         3.5209444630        3.2021672010        1.6152420303
 H         2.8439040947        1.8034152569        2.6460293874
 H         7.2679331823        1.5262676468       -1.2494440930
 H         7.8280180030        2.8348065975       -0.5790548043
 H         9.2780041094       -2.4326778664       -0.4349462835
 H         7.6451618927       -1.9119414311       -0.1780651960
 H        10.0085365284        2.4087236566       -0.2004169480
 H        11.0961305758        1.0811180197        0.3200608154
 H        10.2679229078        2.1354237887        1.5287787771
 H        10.3073489261       -0.6979889104        1.6703061764
 H         9.4842847312        0.2972480775        2.8113801761
 H         8.5895745186       -1.0151195262        1.9991669097
 H         8.4029557286       -3.2145108527       -2.2301852167
 H         8.8867629108       -1.6745217423       -2.8466274861
 H         4.7149646334        0.4835145502       -5.0682634691
 H         4.9441344028       -0.5443983995       -6.5756992201
 H         7.0399098497        0.4350653153       -4.4534970741
 H         7.2476695739       -0.7202355687       -5.7972519173
 H         8.3541757736       -0.7997487930       -4.4448537852
 H         7.8875334583       -3.3874188756       -4.9662792858
 H         6.3208462919       -3.8480920023       -4.5874025063
 H         6.4671275052       -2.8297502942       -6.0706117423
 H         2.7813475055       -0.0327460941       -6.9008007841
 H         2.8251100568       -1.6137526061       -6.0428294663
 H        -1.7736706134       -0.7038981237       -4.4047911446
 H        -1.4780740712       -2.3109910891       -4.7061717482
 H         0.8920599971        1.7647969651       -3.2685819915
 H        -0.8194292494        1.3639867567       -3.4612145410
 H         0.1103504234        2.3614342676       -4.6951650660
 H        -1.1281968658        0.0876363385       -6.1353574203
 H         0.1087449645        1.0982135583       -6.7700115459
 H         0.3265750766       -0.7628415037       -6.8011854740
 H        -1.3466457359       -3.1725283587       -2.3915946161
 H        -2.8029940864       -2.0840407465       -2.5797308986
 H        -1.6339787141        0.5878054792        2.2400526966
 H        -1.4851183860        1.2651926752        0.5760309471
 H        -2.6434778689       -3.3420403310        1.0938786968
 H        -2.1226722114       -3.6897685821       -0.5040445276
 H        -3.5723077300       -2.8822035744       -0.2940192529
 H         0.1766086505       -2.3956714209        0.5958327224
 H        -0.0172648549       -0.6666462719        0.9247138439
 H        -0.8658761041       -1.8597756712        1.9967521322
 H        -3.3187645772        2.3990266254        0.6592230177
 H        -3.8476777529        1.7651839867        2.2734670129
 H        -4.0455326182        2.7675874973        5.0196789226
 H        -4.8322007235        4.1971644450        5.4012268192
 H        -2.1252136581        5.8489482784        3.1413378256
 H        -2.2605211208        4.9921535010        4.5435011960
 H        -3.4428424664        6.0555064496        4.0698799781
 H        -4.7872605478        4.7253982595        1.1582102734
 H        -3.5850693216        6.0527713571        1.4880179568
 H        -3.1382679317        4.6286930223        0.5504861378
 H        -6.9677707473        2.8360814099        4.4344381173
 H        -6.5176608645        2.6133950036        6.0109265833
 H        -8.1092314579       -1.3676825032        2.2352486187
 H        -8.8580908899       -2.0459538388        3.6345741264
 H        -5.7656019890       -1.7212034443        5.8430478650
 H        -5.8749305552       -1.5725431625        4.1122287595
 H        -7.2448142555       -2.2028684129        5.0606902877
 H        -8.7739860940        0.7624746315        6.3013917358
 H        -8.1025411840       -0.7893458319        6.9614905801
 H        -7.1578611274        0.7171745320        7.0316197238
 H       -10.9229097228       -1.3887073093        3.2148327722
 H       -10.4136045738        0.1962838687        2.6924611889
 H       -10.2616979737       -0.6127383423       -1.6379096480
 H       -10.0894836792       -2.3992919569       -1.7569688841
 H       -10.9190674596       -1.4356261686       -2.9077293346
 H       -12.6565015923       -2.5269978626        1.8297505894
 H       -13.8522354667       -1.5175263891        0.7062269624
 H       -13.0949196375       -0.9423970626        2.1613229513
 H       -11.0706840683        0.9933550227        0.3094189061
 H       -12.4176660221        0.7315354297       -0.8842741020
 H       -12.7384110798        0.9457331365        0.9000352226
 Na        3.1951191567       -1.1241678372       -1.9978902632
