155

 C         3.8364690070       -0.7887405756        2.2978597069
 C         3.3990410680       -0.3503225885        0.9464395518
 C         3.5032447429        1.2112726923        0.6643437767
 C         4.5867338814        1.5474073684       -0.4337953225
 C         5.6565838373        2.6210922236       -0.0055867221
 C         2.1010302263        1.7050056460       -0.0698887984
 C         3.7448311929        1.9977266143        2.0365428232
 O         2.9017597400       -1.1958302834        0.1082525564
 O         4.6077384630        1.0297362361       -1.5602175025
 C         7.1342680310        2.1988734601       -0.1957796099
 C         7.5857976927        1.1537978704        0.8962234669
 C         9.0115689298        0.5662458915        0.7980657681
 C         8.9652347701       -0.2174373620       -0.6333511568
 C         8.4029226970       -1.5640959644       -0.7056011751
 O         6.7665443676        0.9030877356        1.7608815084
 O         9.0871025943        0.4403660228       -1.6757925074
 C        10.0486538963        1.7468505766        0.5482807978
 C         9.3612302919       -0.3731426946        1.9817944581
 C         7.9582853574       -1.9922077157       -2.2045497726
 C         6.5496536836       -1.4937217739       -2.6769051538
 C         6.3855562606       -1.6279716865       -4.1949549893
 C         4.8691534217       -1.5415002101       -4.6716391325
 C         4.5565617757       -0.4983944554       -5.7689842695
 C         7.2240662730       -0.3645187972       -4.7578082888
 C         6.8653135839       -3.0953710154       -4.7207048537
 O         5.6175826372       -1.5373946293       -1.8568950621
 O         4.0792948410       -2.1411675358       -4.0434197752
 C         2.9635681319       -0.5124267284       -6.0452805640
 C         2.2411016204        0.2379387025       -4.8094728653
 C         0.6671138743        0.2262453869       -4.7591803532
 C         0.2405832989       -1.0367838480       -3.7619206114
 C        -1.2522801810       -1.5052864555       -3.8429135205
 O         2.9055798803        0.7308272512       -3.9305540003
 O         1.0252485740       -1.5582514119       -3.0357654440
 C         0.1146892107        1.4702820258       -3.9528201280
 C         0.0534115002        0.1587767424       -6.1689093052
 C        -1.6307603506       -2.2408402134       -2.5804157388
 C        -1.4796282711       -1.2964051853       -1.3162459776
 C        -1.9876347319       -1.7076669638        0.0585876668
 C        -2.8638050676       -0.4342075394        0.6066522388
 C        -2.0047519846        0.7379530585        1.0018535641
 C        -2.7886411374       -2.9822146820        0.1753833802
 C        -0.7408039566       -1.8831368588        1.0118553480
 O        -0.9113844753       -0.2254654250       -1.4730935487
 O        -4.0842051164       -0.5321714626        0.5846977305
 C        -2.9404785470        2.0252419339        1.1128579545
 C        -2.3850581200        3.1218516742        2.0987302931
 C        -3.4758128613        4.2020488211        2.5144445254
 C        -4.7568107416        3.5690545379        3.1171087786
 C        -4.8020523095        3.1666996408        4.6045234714
 O        -1.3019584350        3.0460116938        2.6058876110
 O        -5.7451321099        3.4546984006        2.4496076998
 C        -2.9488118542        5.1794305364        3.4762423219
 C        -3.8764619971        5.0345605154        1.2346057731
 C        -6.1229890953        2.4952912371        5.0262719793
 C        -5.9958224280        0.9698510109        4.7155921731
 C        -7.1669954544       -0.1158441090        5.0257836513
 C        -8.2480053561        0.0560486077        3.8531214006
 C        -8.6557217537       -1.0908222615        3.0084298024
 C        -6.4989050895       -1.4715695279        5.0270982492
 C        -7.9490437888        0.1736294156        6.3577369552
 O        -4.9783106169        0.5328844858        4.2203081386
 O        -8.6896164509        1.1995383191        3.6981112689
 C       -10.1469199025       -1.1935525994        2.5811467122
 C       -10.3335497789       -1.2516554444        1.0870106271
 C       -11.7466521681       -1.0055791695        0.4375794385
 C       -11.9004293455       -1.8148023975       -0.9893924733
 C       -10.8743814650       -1.6249064482       -2.0879197050
 O        -9.3337363605       -1.4311209051        0.4149707523
 O       -12.8850804142       -2.4547388972       -1.2148830334
 C       -12.8332963253       -1.5112485109        1.4080405915
 C       -11.8982276869        0.4673079796        0.1264083510
 H         3.1263579289       -0.6995143217        3.1635624580
 H         4.1660892129       -1.8404888542        2.2363316400
 H         4.6814607360       -0.2560733426        2.7191813673
 H         5.5414273253        3.5129041717       -0.6236994459
 H         5.4705301350        2.9285530327        1.0298402048
 H         2.3706102835        2.5014477400       -0.8913493128
 H         1.3848338911        2.0215879612        0.6512877173
 H         1.6681866368        0.7825840596       -0.5487363735
 H         4.7628670659        1.8480146231        2.5314242188
 H         3.6405099857        3.0840428107        1.8387600202
 H         3.0344562696        1.6894258926        2.7254974854
 H         7.2140949154        1.6791246444       -1.1954269605
 H         7.9440856927        2.9172496839       -0.3089040032
 H         9.0345653156       -2.3625763205       -0.4159701904
 H         7.5256084257       -1.5928486939       -0.0071950476
 H         9.5462999677        2.4763469692       -0.1471261028
 H        10.9641326558        1.3889435515        0.1453388097
 H        10.2367750260        2.3504550913        1.4002876094
 H        10.3314761443       -0.8397067143        1.9609059405
 H         9.5437598031        0.3328917228        2.8131819193
 H         8.5842990010       -1.1633265218        2.1324689561
 H         7.8555988515       -3.0946760178       -2.1400757573
 H         8.8433716469       -1.8501755941       -2.8663036255
 H         4.8305549552        0.5176902870       -5.4633927697
 H         5.1317625072       -0.7098591423       -6.6819369703
 H         7.0665204897        0.5618593357       -4.2090367736
 H         6.9008190253       -0.1391957273       -5.8071421092
 H         8.2581466372       -0.6286549822       -4.6977712004
 H         7.9110088707       -3.1238997555       -4.8074766221
 H         6.6350141643       -3.9627350736       -4.1070935223
 H         6.5105280960       -3.1495181839       -5.6948625744
 H         2.6245020781        0.0220395025       -6.9323018657
 H         2.6498607048       -1.5185794375       -6.0995243157
 H        -1.8169634715       -0.5430925409       -4.0384264544
 H        -1.4559714233       -2.1601974832       -4.7493293676
 H         0.4985449648        1.4430182542       -2.9351429821
 H        -0.9455103479        1.4673381402       -3.9330250123
 H         0.4724506797        2.3552227240       -4.4749375944
 H        -1.0836347418        0.2475310155       -6.1412518415
 H         0.3853275525        0.9276782204       -6.8489474421
 H         0.3457559918       -0.7334621305       -6.6063722891
 H        -0.9417353253       -3.0265246083       -2.2807362813
 H        -2.6063252505       -2.6459340076       -2.8060695457
 H        -1.4810477102        0.6436010960        1.9788876578
 H        -1.3254340055        0.8497892185        0.1445390412
 H        -2.7735789466       -3.4102991394        1.2374664255
 H        -2.5310404762       -3.9074720187       -0.4659337336
 H        -3.8746391325       -2.7724467677        0.0185957719
 H        -0.3893077624       -2.9370695001        0.9729198340
 H         0.0264422406       -1.1449810544        0.7950811983
 H        -1.0592136847       -1.6544837745        1.9724337710
 H        -2.9652498308        2.5303163635        0.1215660837
 H        -4.0087629687        1.7624395724        1.3752954484
 H        -3.9084696815        2.5246491076        4.9097290035
 H        -4.5345042104        4.1068927144        5.1813564433
 H        -2.2206211246        5.9898222055        3.2058120218
 H        -2.3964286633        4.7519933521        4.3168893352
 H        -3.8013047974        5.7262945696        3.9828379087
 H        -4.9089483792        5.3800730101        1.3279097062
 H        -3.0977241800        5.9056691203        1.2293064729
 H        -3.8350025558        4.4723812209        0.3415337485
 H        -7.0532194182        2.9019633712        4.4943265152
 H        -6.3949322988        2.6393818219        6.1433580090
 H        -8.2088123142       -1.0674429172        2.0089909416
 H        -8.5572969458       -2.0150581955        3.6863218491
 H        -5.7604330969       -1.3685690823        5.8309572832
 H        -5.9276123154       -1.7148520602        4.1143735360
 H        -7.2159432660       -2.2568170969        5.3214352683
 H        -8.5776937692        1.0572583269        6.3069711602
 H        -8.7204329893       -0.6111576868        6.3547740921
 H        -7.4336923076        0.0513452594        7.3359171114
 H       -10.6196161917       -1.9398586797        3.2013654790
 H       -10.6226023985       -0.2057161351        2.8535640944
 H       -10.6708220652       -0.5623308355       -2.3435959381
 H        -9.9522353092       -2.1353711719       -1.9074662170
 H       -11.2837983689       -2.0959806274       -3.0349302413
 H       -12.5686613393       -2.5052097053        1.8209742402
 H       -13.8093698697       -1.6515043661        0.8222054135
 H       -12.9822837332       -0.8799568070        2.3057085413
 H       -11.5652105835        1.1801638594        0.8662860836
 H       -11.4138842366        0.6147077760       -0.7928478287
 H       -12.9534483826        0.5330317096       -0.0748508018
 Na        3.3341845433       -1.0361732096       -2.2602645318
