155

 C         3.3411375158       -1.1288674491        2.4692309423
 C         3.2820353913       -0.2937166360        1.1069142697
 C         3.2109020453        1.3204722858        1.0271404396
 C         4.5691447825        1.7539965316        0.2266309462
 C         5.6260251777        2.9547947641        0.6971435066
 C         1.9876803258        1.8257379825        0.2055527811
 C         3.1967166383        1.7934162853        2.4846727820
 O         3.2056434113       -0.8565935861        0.0289816023
 O         4.7375880072        1.3500440983       -0.8604340403
 C         7.0321593026        2.5741669024        0.1945529620
 C         7.4953046736        1.1966715417        0.9097882889
 C         8.8764018318        0.5844267457        0.7368321616
 C         8.8488790861       -0.1872384141       -0.5821166195
 C         8.0742274677       -1.4801635639       -0.7280962648
 O         6.7409139160        0.7273025273        1.7108875475
 O         9.5070699235        0.2970274503       -1.4866580741
 C         9.9913856333        1.6775605439        0.6574963851
 C         9.2048161095       -0.3323355542        1.8592356431
 C         7.7803502794       -2.1491769834       -2.1073580476
 C         6.5159031170       -1.6532164270       -2.8317291189
 C         6.4673423264       -1.5720501991       -4.3146541280
 C         4.9356643965       -1.3723451227       -4.7010035461
 C         4.5219970724       -0.4879688239       -5.8380090242
 C         7.2501884201       -0.3196075327       -4.6726084710
 C         7.0161083293       -2.8199025477       -4.9795440155
 O         5.6269670487       -1.1018060711       -2.2410768284
 O         4.1504757571       -1.9974287581       -4.0638242016
 C         3.0126056122       -0.5769317814       -6.0884064455
 C         2.4155152813        0.2244175333       -4.8988479418
 C         0.8243780248        0.0917534179       -4.5952862780
 C         0.5351736649       -1.0456849925       -3.6200737817
 C        -0.8597192180       -1.7854928663       -3.8315188375
 O         3.0808714048        0.9263170435       -4.2069510874
 O         1.3369007760       -1.5283019811       -2.8514424021
 C         0.2858561574        1.3850410237       -3.9120654525
 C         0.0489565639       -0.0373192322       -5.9705947082
 C        -1.3884208716       -2.3047637565       -2.5399558855
 C        -1.4603053133       -1.3555844242       -1.3691226464
 C        -2.0938181939       -1.8592119257       -0.0383997017
 C        -2.9961705415       -0.6175660078        0.6379247163
 C        -2.2416722680        0.6803781309        0.7444152182
 C        -3.1189751252       -2.9838782572       -0.2688807272
 C        -1.0385032704       -2.2256683581        1.0966725430
 O        -0.7265856041       -0.3614632697       -1.3721494788
 O        -4.1483084361       -0.6950727795        1.0240352200
 C        -3.1308036935        1.9969398763        0.8042665027
 C        -2.6248887896        3.0008231777        1.8261034817
 C        -3.5496457202        4.1891729441        2.1661641210
 C        -4.8609819785        3.4171659819        2.7694327956
 C        -4.7996257934        3.0980191072        4.2231224013
 O        -1.5902580848        2.7945307148        2.4733145607
 O        -5.7810730702        3.1203208206        2.0425284937
 C        -2.8738633912        5.1446981041        3.1944949998
 C        -4.0946869488        5.1143643055        0.9568414538
 C        -6.0132785685        2.3344344535        4.7099320675
 C        -5.8234935462        0.7861290406        4.5986451791
 C        -7.0727092447       -0.1516435388        5.0376602369
 C        -8.1568366648       -0.0399125008        3.8720759665
 C        -8.4138494566       -1.1261159110        2.8253398922
 C        -6.6702583004       -1.6235552887        5.3126244936
 C        -7.7636302888        0.4456257645        6.3241921694
 O        -4.8590711949        0.1999792908        4.1673558086
 O        -8.7698489815        1.0073455546        3.8001733887
 C        -9.9069143173       -1.0872515930        2.3676435043
 C       -10.1260019208       -1.1777433116        0.8782227458
 C       -11.5879777205       -0.9495925474        0.3904743183
 C       -12.0167751811       -1.8577956230       -0.9653317206
 C       -11.0577189669       -1.6821167297       -2.1380201568
 O        -9.2157765858       -1.4048934624        0.1116129766
 O       -12.9428000011       -2.6081290440       -0.9385654967
 C       -12.6333930640       -1.3887975147        1.4620247616
 C       -11.6904401308        0.6154654990        0.1344124995
 H         2.8261359744       -0.6149919841        3.3127368011
 H         3.0035060340       -2.1872387168        2.4063327765
 H         4.3377985391       -1.2501409091        2.9094799526
 H         5.4317270312        3.8101082710       -0.0130223675
 H         5.6411274681        3.2723347100        1.7775661752
 H         1.7569116477        2.8551975376        0.6051008601
 H         1.2862505423        1.0721615826        0.1258577873
 H         2.3666196688        2.0242783419       -0.8211519258
 H         4.1104292679        1.4194318546        2.9858259635
 H         3.2423564161        2.9014200233        2.5216510476
 H         2.2867551608        1.5782890388        2.9240282728
 H         7.0439571023        2.3258106411       -0.8597791957
 H         7.7548576870        3.3431468858        0.3309370453
 H         8.7264014729       -2.0851635494       -0.1108065970
 H         7.0918226162       -1.4605951069       -0.2621419584
 H        10.2505786165        1.8704943166       -0.4384501113
 H        10.8731573190        1.2008258744        1.0710623637
 H         9.7363559020        2.6443330360        1.0325473509
 H         9.9321897404       -0.9911958322        1.4887436645
 H         9.6480019680        0.1864075338        2.7439914268
 H         8.4380969210       -1.0288212132        2.1289212392
 H         7.8678400887       -3.2547021279       -2.1047181522
 H         8.6608417180       -1.8369050073       -2.6811650280
 H         4.8689472856        0.5686809156       -5.9169276828
 H         4.9471361811       -0.8784924392       -6.7962539925
 H         6.5782781702        0.5514219065       -4.6463318348
 H         7.5916527224       -0.4312049827       -5.7700475708
 H         8.1414539530       -0.2462690442       -4.0900742457
 H         8.0197339559       -3.1717084877       -4.7837130698
 H         6.2439654454       -3.5905412040       -4.6938238970
 H         6.9645076501       -2.7685836873       -6.0540839379
 H         2.6171230677       -0.1495142375       -7.0290102971
 H         2.7158424941       -1.5754758638       -5.9389808704
 H        -1.4923988916       -0.8917164804       -4.0643971700
 H        -0.7624213801       -2.4685039982       -4.6872343329
 H         0.9414888133        1.5822170331       -3.0557710263
 H        -0.7326920660        1.2806465034       -3.5922148014
 H         0.2981317301        2.1142612879       -4.6712101948
 H        -0.9988918996       -0.0118494493       -5.7354281721
 H         0.2317652460        0.8167793517       -6.7051111470
 H         0.2328805580       -0.9214767880       -6.6297638162
 H        -0.8970042058       -3.2330725750       -2.2002173341
 H        -2.4604799498       -2.5990391243       -2.6427818894
 H        -1.6474999288        0.4589713079        1.6620467007
 H        -1.4618984496        0.7665144476       -0.0131257058
 H        -3.7398794613       -3.3260075811        0.5974398523
 H        -2.6034817511       -3.9229749942       -0.4832679107
 H        -3.8541496449       -2.7603952312       -1.0082449570
 H        -0.2851571605       -2.9533229363        0.6681715043
 H        -0.5694383074       -1.3330864251        1.5150726182
 H        -1.5221719207       -2.7277414684        1.8928963476
 H        -3.2594574130        2.3722128471       -0.2103270896
 H        -4.1623816635        1.7017099545        1.0120066557
 H        -3.7315035019        2.7605064795        4.5376756224
 H        -4.7778209018        4.1247632306        4.7466217108
 H        -2.1093068205        5.7126432440        2.7402284429
 H        -2.4189002323        4.7808032088        4.0747156696
 H        -3.5281307152        5.9274672693        3.5473200834
 H        -3.4176589755        6.0132785322        0.8882681859
 H        -3.8993878299        4.6025295480       -0.0500501216
 H        -5.1140044293        5.3301051061        1.0631185056
 H        -6.9154663234        2.5725621309        4.1089510433
 H        -6.3302778086        2.6829404926        5.7112702634
 H        -7.7491956713       -0.9321005513        2.0146459158
 H        -8.3661820173       -2.1022436206        3.2882209819
 H        -6.0594522933       -1.5328437568        6.1693313891
 H        -6.0907194686       -1.9340768968        4.4212773956
 H        -7.4347896933       -2.3526667293        5.3985397557
 H        -8.5563692850        1.1353109395        6.0209539249
 H        -8.3953709449       -0.3898422594        6.7711998985
 H        -7.2029604880        0.7901836062        7.2090069833
 H       -10.4242837921       -1.8606072976        2.9487342014
 H       -10.2653554496       -0.0806433230        2.7886068809
 H       -10.9540601942       -0.5991544289       -2.3944652784
 H       -10.1092273555       -1.8075043013       -1.7003058982
 H       -11.1311718560       -2.3088112986       -2.9859906027
 H       -12.5849845595       -2.3956826498        1.8817395952
 H       -13.7681408200       -1.4068850943        1.2149171112
 H       -12.4931119595       -0.6106814152        2.1679502904
 H       -12.6932240350        0.8645499725        0.1951091352
 H       -11.1539398489        1.1463034976        0.9137965181
 H       -11.3163087521        0.8725300404       -0.8547349044
 Na        3.3715557685       -0.2489296213       -2.1191166893
