155

 C         1.4882819924       -2.0993638971        3.0437549159
 C         1.7401823169       -0.8866804580        2.1138121022
 C         1.0154058197        0.4123571437        2.2740807423
 C         2.0209819729        1.4907060103        2.6818529109
 C         2.0219596458        2.0251809991        4.2097953815
 C         0.2811168231        0.7357513184        0.9184688971
 C        -0.1537734339        0.3335330419        3.3987227534
 O         2.6593658686       -1.0119895380        1.2632291329
 O         2.7001474897        2.0629411448        1.9096324248
 C         3.2235094244        3.0715881504        4.4698666426
 C         4.5778953388        2.4124736525        4.7032997120
 C         5.7753558157        3.2402192268        5.0965483133
 C         6.7560524975        3.3603871268        3.8485774967
 C         7.3128527434        2.0182960740        3.2140243951
 O         4.6325310263        1.1996451471        4.5524150164
 O         6.9812887612        4.3751222691        3.2377052317
 C         5.3389843899        4.7634885287        5.3474695928
 C         6.4100713058        2.6113091255        6.3456099375
 C         7.8007185458        2.0746523100        1.7407634190
 C         6.8459121452        1.2452815642        0.8192278708
 C         7.2024493735        0.6778406090       -0.6797050239
 C         5.9771309217        0.4532226999       -1.7426404598
 C         6.2313548880        1.2632005232       -2.9780329822
 C         8.3694576917        1.6811239392       -1.0617922436
 C         7.7773958207       -0.7441095103       -0.5406630770
 O         5.7365288351        0.9030071484        1.1734826753
 O         5.0721151994       -0.4230871419       -1.5666861248
 C         5.0498109444        1.0279933907       -3.9792593768
 C         3.7329096262        1.4091800680       -3.3862595604
 C         2.2964388675        0.9949694304       -3.8231640812
 C         1.8240352290       -0.1479052115       -2.7852276342
 C         0.8774251580       -1.2875028062       -3.2214065097
 O         3.8269104139        2.1382160539       -2.3598715327
 O         2.2082349922       -0.0865876818       -1.6707115826
 C         1.4736505422        2.3009506291       -3.7193216332
 C         2.2655553461        0.4595183923       -5.2967602650
 C        -0.4910436235       -0.8782588873       -3.7063212189
 C        -1.5846586835       -2.1569369481       -3.6783716561
 C        -2.4764256904       -2.1978529656       -4.8892513686
 C        -3.5916367972       -1.1386332410       -4.8724303679
 C        -4.7074500340       -1.2788896230       -3.7665008659
 C        -1.4854954960       -1.9154336519       -6.2005363825
 C        -3.0667553588       -3.6720032483       -5.0474494499
 O        -1.5127970800       -2.9529143103       -2.8092619778
 O        -3.5324266738       -0.1515298909       -5.5967989241
 C        -5.4119904000        0.0124839366       -3.4264686437
 C        -4.3876792576        0.9867287133       -2.7619953020
 C        -4.9739433829        2.2524913610       -2.0327591274
 C        -5.1228115706        1.5369544064       -0.6850182079
 C        -4.0902062284        1.9727177364        0.3950825253
 O        -3.2030675435        0.7729481022       -2.7129601377
 O        -5.9358518705        0.6452526476       -0.5326216994
 C        -3.9728848904        3.4380703701       -2.0762976951
 C        -6.3788125801        2.6087761620       -2.4953123512
 C        -4.2278403198        1.2502510139        1.8181621925
 C        -3.8938357849       -0.1824648560        1.7957688743
 C        -4.4208607965       -1.2330495416        2.9174725825
 C        -5.9568926598       -1.3740773718        2.6472402991
 C        -6.3518150863       -2.4521475304        1.6021227753
 C        -3.7365926800       -2.6490642395        2.6725461752
 C        -4.0875157172       -0.7293098473        4.3654546920
 O        -3.1863622293       -0.6950925809        0.9197439815
 O        -6.7630950198       -0.5494540008        3.0760556809
 C        -7.8018848478       -2.3341747627        1.3278948186
 C        -8.2996745204       -3.5243913186        0.4351314211
 C        -9.4051647409       -3.1676568709       -0.6603205536
 C       -10.2920315306       -2.0673118195        0.0613590880
 C       -11.5780037180       -2.4299834092        0.7219367646
 O        -8.1488881702       -4.6937688924        0.7009313341
 O       -10.0943357588       -0.8746796556       -0.1452087221
 C        -8.6633282377       -2.5603799490       -1.9447390387
 C       -10.2048001015       -4.4487284008       -1.0448841069
 H         0.4597932995       -2.2458869183        3.3923864174
 H         2.0039774479       -3.0513061090        2.7641351484
 H         2.0800867440       -1.8459245583        3.9370663931
 H         1.0580442046        2.3362749850        4.4757382645
 H         2.1115685006        1.2332095989        4.8881020521
 H        -0.6009472907        0.1024826953        0.8019851093
 H         1.0904304107        0.5123859706        0.1291050193
 H        -0.0020170352        1.7036228840        0.9737806404
 H         0.1637958506        0.2937529337        4.3700629832
 H        -0.8465038708        1.2334908443        3.3795484658
 H        -0.6824480066       -0.6271242179        3.1629507005
 H         3.3401086045        3.7277936755        3.6175031973
 H         2.9374729648        3.7004170624        5.4140510759
 H         8.1737126847        1.6395139160        3.6893397306
 H         6.5451850657        1.2097672706        3.3156937758
 H         4.9989290944        5.2703078390        4.5070617323
 H         6.1511399244        5.3788718565        5.7603236603
 H         4.5507061093        4.8986270158        6.0954551785
 H         7.3620381171        3.0769593647        6.5193208558
 H         5.7029322196        2.7267917307        7.1224770395
 H         6.6799836829        1.6322710872        6.0724165465
 H         8.7603710490        1.4768026637        1.7530287310
 H         7.9862767846        3.1313170667        1.3173413148
 H         6.4509120205        2.2577101232       -2.7777288557
 H         7.2080111214        1.0041673023       -3.4388836548
 H         8.1210436242        2.7685461669       -1.1197986239
 H         8.9703322976        1.4543169946       -1.9238226981
 H         9.0727930539        1.4772964295       -0.2065160234
 H         8.6541482606       -0.6334812083        0.0850692074
 H         7.1359572210       -1.3665159619        0.0239402724
 H         8.0881786925       -1.2022165230       -1.4914968533
 H         5.3320279254        1.7405611452       -4.7581289489
 H         5.1001054064       -0.0084751850       -4.3180442012
 H         1.3264781357       -1.8024532714       -4.0364064740
 H         0.8051353392       -1.9372594665       -2.3869244338
 H         1.6894774939        2.8314513033       -2.8244653126
 H         0.4278462761        2.0987841064       -3.8405979045
 H         1.8786125977        3.0303253428       -4.4651572268
 H         1.2194253330        0.5614526268       -5.5657921882
 H         3.0155276079        1.0059498232       -5.8962083535
 H         2.5849101473       -0.5964827288       -5.3558515616
 H        -0.4540974558       -0.2932458887       -4.6648583922
 H        -0.8959666071       -0.1357089100       -3.0086719299
 H        -5.5583901317       -1.9224920815       -4.0522687127
 H        -4.3017207961       -1.7707817930       -2.8584153155
 H        -1.8315144294       -2.5560859148       -7.0315184763
 H        -0.4563216301       -2.1644364446       -5.8793564984
 H        -1.7518579631       -0.8906268707       -6.5558716304
 H        -2.2715023289       -4.3911127535       -5.2190033412
 H        -3.4837760200       -4.1077362118       -4.1529667923
 H        -3.7663894606       -3.6273319971       -5.8623500223
 H        -6.0097480429        0.4969782919       -4.2354362556
 H        -6.1374009571       -0.1900098631       -2.5945005058
 H        -3.0791120630        1.8569088650        0.0416945762
 H        -4.3368639028        2.9746999505        0.5027873596
 H        -4.1018022932        3.9829764463       -3.0884403988
 H        -2.9557712146        3.0896049123       -2.0222032650
 H        -4.2412320079        3.9650517076       -1.1392190426
 H        -7.0431779813        1.6979467279       -2.4399906910
 H        -6.8854396841        3.3888658796       -1.9582427730
 H        -6.3311314560        3.1431737135       -3.4020520469
 H        -5.2405689488        1.4344303957        2.1914745770
 H        -3.4760338778        1.7492554057        2.4405852532
 H        -5.7670650844       -2.3726462476        0.7032214536
 H        -6.2318448845       -3.5582368380        1.9421632033
 H        -3.6526015748       -2.9112122915        1.5907588697
 H        -4.2351020659       -3.4456818257        3.2036429446
 H        -2.7235349993       -2.4698484172        3.1014199102
 H        -3.1447734065       -1.1691681819        4.6682277566
 H        -4.0770560429        0.3703797476        4.4056002065
 H        -4.6946447884       -1.0318861253        5.2064503270
 H        -8.3124156632       -2.4123709196        2.3974858226
 H        -7.9871023355       -1.3685652865        0.7811246585
 H       -11.9865026433       -1.6500515688        1.2780317493
 H       -12.1956332058       -2.7640265136       -0.0719623018
 H       -11.3901186319       -3.3115403425        1.3617717719
 H        -7.8509829099       -1.9846300774       -1.6317082308
 H        -9.2370462475       -1.9811966520       -2.6425369968
 H        -8.0415296133       -3.1805232399       -2.6283859781
 H        -9.4211342795       -5.1968411731       -1.1839624878
 H       -10.8322748741       -4.7699061280       -0.2286963684
 H       -10.7978233810       -4.1300999863       -1.9318225215
 Na        3.4978221152        0.6879113222       -0.0713537188
