155

 C         2.1793975352       -2.3175706484        3.5527300555
 C         2.1251931488       -1.1785646851        2.4980657731
 C         1.0243126779        0.0104969516        2.7537541442
 C         1.9136767350        1.4185221306        2.5757592294
 C         1.5358509405        2.5165571545        3.5526646529
 C         0.0896571696       -0.2106085611        1.4085878692
 C         0.1761875564       -0.1635601244        3.9515556570
 O         2.7980292323       -1.2769875918        1.4589023700
 O         2.6051218775        1.7152371203        1.6112291283
 C         2.6310110307        3.5224531187        4.0184621895
 C         3.6527815405        2.6490069405        5.0386269722
 C         5.0209179968        3.3031808233        5.2426967965
 C         5.8651561634        3.3168289837        3.8582398214
 C         7.0226204226        2.2757766252        3.5443862109
 O         3.2194560894        1.6410099068        5.6210634314
 O         5.5051547015        4.1719476025        3.0360143531
 C         4.9148921694        4.7209248668        5.7777718385
 C         5.7758787969        2.5064418533        6.3341400763
 C         7.5141362008        2.5237043152        2.1934224742
 C         6.7342381288        1.8494425615        1.1184771458
 C         7.5501642441        1.3097520753       -0.1660127557
 C         6.4893034596        0.8362071093       -1.2191299314
 C         6.3475347199        1.3715093197       -2.6326243097
 C         8.3724483776        2.5036753549       -0.7388139554
 C         8.5942756248        0.1933693176        0.3625721707
 O         5.5698308509        1.6223921505        1.2376516146
 O         5.6827989079       -0.0544562786       -0.9061076690
 C         5.1331220280        0.7324680661       -3.3833235406
 C         3.7168922357        1.1700393084       -2.9185725256
 C         2.3310538890        0.8520138853       -3.6412055565
 C         1.7134572991       -0.4575908719       -2.8667163262
 C         0.9355220928       -1.5545807675       -3.7267065052
 O         3.7111426558        1.8494582344       -1.8712655553
 O         1.8506638360       -0.6364002405       -1.6995665072
 C         1.4274555991        2.0741307021       -3.4263750158
 C         2.5636517707        0.5839634559       -5.2265975898
 C        -0.3757351760       -0.9127285365       -4.2524530757
 C        -1.3624313470       -2.0275174699       -4.6914953909
 C        -2.3367755878       -1.9047813367       -5.8227834169
 C        -3.5178215011       -0.7025586564       -5.3399813056
 C        -4.4684930259       -1.1484729634       -4.2041826889
 C        -1.6044089011       -1.4926846288       -7.0909346772
 C        -3.0606605555       -3.2724011807       -5.9258535882
 O        -1.3101150777       -3.1438096956       -4.0974658710
 O        -3.5782883503        0.3696889070       -5.9574155680
 C        -5.1868998311        0.0194229433       -3.4779858181
 C        -4.1955081877        1.0035862414       -2.8670796221
 C        -4.9147310318        2.2180858752       -2.1282317471
 C        -5.1520893266        1.9056158108       -0.6438152976
 C        -3.8940825651        1.5806673758        0.1181480799
 O        -3.0364703823        0.7623366048       -2.7416203892
 O        -6.2132180029        1.9510088892       -0.1022894906
 C        -3.8961748796        3.3854514691       -2.2343172618
 C        -6.1382069456        2.6462127962       -2.9172440233
 C        -4.2169931396        0.7931482403        1.4394402622
 C        -3.8368858130       -0.6542101527        1.6822461256
 C        -4.3081158629       -1.3892791167        3.0308776573
 C        -5.8153485461       -1.4904528884        2.7179062554
 C        -6.2237905666       -2.4692459624        1.6396495714
 C        -3.4966408736       -2.7416902129        3.1090649238
 C        -3.9745647968       -0.4682677253        4.2533513744
 O        -3.0658809603       -1.2729205948        0.9674206022
 O        -6.5785546801       -0.7046755147        3.2536883314
 C        -7.6965382855       -2.3172482911        1.0706595772
 C        -8.2780374670       -3.5961536815        0.4882639131
 C        -9.1027792907       -3.5306196047       -0.8274119973
 C       -10.1555693137       -2.4271997409       -0.5426529935
 C       -11.0976590111       -2.6662886165        0.6136284618
 O        -8.1667522295       -4.6573026975        1.1298918017
 O       -10.1586909546       -1.4649730333       -1.2471308268
 C        -8.3209199858       -3.0273527030       -1.9670878134
 C        -9.5833750213       -5.0173156842       -1.2098253673
 H         1.2452203064       -2.3688599009        4.1217304742
 H         2.3662099640       -3.2995214628        3.0915016071
 H         2.9906916435       -1.9470383203        4.2471843778
 H         0.6221658268        3.0810088849        3.1100217625
 H         1.3386042017        2.0160818825        4.5318645462
 H        -0.2697786067       -1.2185593319        1.3381457711
 H         0.6664393420        0.0341389844        0.5190482324
 H        -0.7810323878        0.5532007986        1.4887336827
 H         0.8273716266       -0.1936976948        4.9092268337
 H        -0.3450988575        0.7131286700        4.1518413238
 H        -0.5101754547       -0.9788813337        3.8950545818
 H         3.2418529664        3.9404170584        3.2647587710
 H         2.1999146231        4.2501069309        4.7777769919
 H         7.7751988431        2.6616096676        4.2971731358
 H         6.6415787490        1.2575534277        3.7610807258
 H         4.4136447584        5.4897724212        5.1006459464
 H         5.9576023055        5.0796873732        5.8149904579
 H         4.3811859308        4.8861009998        6.7176446325
 H         6.8238073937        2.8496357158        6.3321000023
 H         5.4912637930        2.7495496834        7.3146340703
 H         5.7296853702        1.4291074361        6.1552403950
 H         8.5506785749        2.1901883232        1.9745733400
 H         7.6721880661        3.5627521139        2.0532829525
 H         6.2030337283        2.4686168466       -2.5485353358
 H         7.4188046738        1.4905415631       -3.0987166036
 H         7.8371225525        3.3406577854       -1.1242074440
 H         9.0979706675        2.2842399158       -1.5036286197
 H         8.9931775240        2.9313822138        0.0608244303
 H         9.3227153241        0.7630128688        0.9095873319
 H         8.1403843354       -0.6645243237        0.8399736287
 H         9.1235844940       -0.2382436898       -0.4229588396
 H         5.1099527976        0.7442106919       -4.4953060386
 H         5.0794299397       -0.3326900655       -3.0091651482
 H         1.5099275277       -2.0328217078       -4.5811724612
 H         0.6001979163       -2.4086899596       -3.1030911729
 H         1.2391377347        2.0989133925       -2.3308006458
 H         0.4608416114        1.9624468525       -3.9111791826
 H         1.9208948250        2.9956955815       -3.6929474196
 H         1.6097522306        0.8397570341       -5.7154294362
 H         3.4353577229        1.1419981057       -5.6502559773
 H         2.8318189109       -0.4471610687       -5.4989647314
 H        -0.0796146527       -0.3139269911       -5.1404913145
 H        -0.8834500466       -0.3103482445       -3.5407755750
 H        -5.2427866204       -1.7129560901       -4.6405495695
 H        -3.8310685506       -1.7539045154       -3.5301319780
 H        -1.1222204485       -0.4850797887       -7.1477577267
 H        -2.3609992024       -1.6509689818       -7.8788280573
 H        -0.8785175600       -2.3501528673       -7.2699347019
 H        -2.4322299113       -4.1895896719       -6.1195615464
 H        -3.7045899828       -3.5067126249       -5.0961625012
 H        -3.7388900541       -3.2357454036       -6.8161861278
 H        -5.7817996834        0.5619814781       -4.1381567514
 H        -5.7398378614       -0.2754415252       -2.5846666497
 H        -3.2451270557        0.9028580171       -0.5304137516
 H        -3.2905312409        2.5025011147        0.2964336393
 H        -3.7262314821        3.6845812626       -3.2223186791
 H        -2.9165731747        3.0391271683       -1.7840226967
 H        -4.2489543655        4.2897029611       -1.7385625853
 H        -6.8463524076        1.8896188904       -3.0008635504
 H        -6.5631357961        3.4798450907       -2.3917323484
 H        -5.8284353939        2.8314411473       -3.9737763086
 H        -5.3162253243        0.9014415522        1.6500744748
 H        -3.9000728456        1.3450023438        2.3357485675
 H        -5.4678791029       -2.3456924838        0.8974663830
 H        -6.0840433380       -3.5048631620        2.0504474591
 H        -3.3132400302       -3.1246702183        2.0900224477
 H        -4.0406960852       -3.5068628013        3.7190409730
 H        -2.4791681625       -2.6642361950        3.6153771936
 H        -3.2257456324        0.3488588187        4.0107027618
 H        -4.8085194381        0.0692906987        4.6775465068
 H        -3.5898000437       -1.0181631399        5.1303046046
 H        -8.2441971016       -2.0560708992        1.8912071743
 H        -7.6851186478       -1.4419684394        0.4218382201
 H       -10.9116369400       -1.7506611234        1.1918335493
 H       -12.1622644262       -2.7864515866        0.3234381156
 H       -10.8205228824       -3.5884778450        1.1206726211
 H        -7.8975090845       -2.0047785104       -1.9186050069
 H        -8.7462532976       -3.1564403866       -2.9751614792
 H        -7.3831021981       -3.5020422567       -2.1228462322
 H        -8.8241050299       -5.7769034372       -0.9620876228
 H       -10.5824797343       -5.2831909750       -0.7006719359
 H        -9.7175889635       -5.0490377471       -2.3246819602
 Na        3.7161161888        0.4674087864        0.1027571845
