155

 C         2.7822031526       -1.9387809995        3.7663893934
 C         2.4669728061       -0.9959446259        2.6454311820
 C         1.0960725589       -0.0954224364        2.5672003863
 C         1.7664380629        1.3798912248        2.6601664745
 C         1.2349476844        2.3608254809        3.6773874737
 C         0.3262610359       -0.0585494276        1.2348911385
 C         0.1500750924       -0.5301015114        3.6931317123
 O         3.1431973629       -1.0092956532        1.6454255714
 O         2.4945781141        1.8005286901        1.7583708126
 C         2.3546054274        3.4314800987        3.9782068811
 C         3.3789873819        2.6120078131        4.9308493132
 C         4.7277440277        3.2763685317        5.2275480983
 C         5.5001847653        3.3725554029        3.8072651654
 C         6.7858103792        2.5888107259        3.6744490885
 O         2.9894418915        1.5862709165        5.4812562883
 O         5.0652337478        4.0670773223        2.9094357414
 C         4.5232870798        4.7845599794        5.7456109101
 C         5.5403797542        2.4663014981        6.3591327144
 C         7.4361876874        2.5784139555        2.2787338899
 C         6.5360768488        1.6818855297        1.3207610710
 C         7.2321847945        1.3683158298       -0.0566614355
 C         6.2261656395        0.7688118074       -1.1723900593
 C         6.2319390413        1.2647822744       -2.6146963872
 C         7.9671496173        2.6172759390       -0.5407497307
 C         8.2505995876        0.2841361288        0.2131704353
 O         5.4104093909        1.4185970192        1.5565718238
 O         5.4934100425       -0.1656052312       -0.8528662126
 C         4.9940247217        0.8166019415       -3.4352192875
 C         3.6498762368        1.2930587891       -2.8560879582
 C         2.4003778011        0.7351160458       -3.4907021515
 C         1.9827969001       -0.6050146177       -2.7358324504
 C         0.8882201166       -1.5825517426       -3.4417744965
 O         3.5994373751        2.1016127183       -1.8769651108
 O         2.4070867827       -0.9690364138       -1.6888394783
 C         1.2844502481        1.8062195808       -3.3314676929
 C         2.4998228943        0.4183771778       -4.9238932158
 C        -0.3600591086       -0.9244680816       -4.1505506477
 C        -1.2277445089       -2.1504352207       -4.7748996832
 C        -2.1956674789       -1.6706081900       -5.8837680784
 C        -3.2684085646       -0.6301308523       -5.3017947281
 C        -4.1465122319       -1.1395346376       -4.0671455840
 C        -1.4074728429       -0.9022968071       -7.0310119689
 C        -2.8366249487       -3.0026838010       -6.5260605230
 O        -1.0451034980       -3.3014055971       -4.4715405682
 O        -3.3470065574        0.5148849191       -5.6957463664
 C        -5.0229345894        0.0900091316       -3.6999238540
 C        -4.1237637142        1.0850862810       -2.9893872896
 C        -4.7454756823        2.3385201407       -2.3302387492
 C        -5.0739754504        1.7874986881       -0.7685807329
 C        -3.8545591750        1.3350564594        0.1193572854
 O        -2.9297803839        0.9175867986       -2.9000318734
 O        -6.1922559324        1.6885389499       -0.3690116741
 C        -3.6239540502        3.4140560927       -2.2209685638
 C        -5.9742342838        2.9091670980       -3.1184729091
 C        -4.2340610544        0.7729589163        1.4252576285
 C        -3.7510399073       -0.6766860893        1.7422407215
 C        -4.2459552437       -1.3334510765        3.1032220269
 C        -5.8388149677       -1.5908391228        2.8828279462
 C        -6.2023176709       -2.7921471177        2.0221594911
 C        -3.4201281701       -2.6533679563        3.1691334713
 C        -4.0248358546       -0.4317390535        4.3212837186
 O        -2.8477695859       -1.1960672560        1.0892882448
 O        -6.6741717729       -0.9425964954        3.4597231820
 C        -7.0866147089       -2.3352907266        0.8186597007
 C        -8.0757335620       -3.5026383903        0.4864184462
 C        -8.9284886307       -3.5519917433       -0.8206894742
 C       -10.2414367725       -2.6095107865       -0.7469883239
 C       -11.3183430136       -2.7995190117        0.2156549973
 O        -8.1295766556       -4.4193880585        1.2819460610
 O       -10.4515852402       -1.8387158498       -1.6577098744
 C        -8.0331899509       -3.0814852941       -1.9845418353
 C        -9.5015332564       -4.9699216361       -1.0002165219
 H         1.9359898731       -2.6106076617        3.9141680084
 H         3.7084974932       -2.4543969107        3.5968553259
 H         2.8060760262       -1.2178323582        4.6291343141
 H         0.3157293737        2.9496881369        3.2559896012
 H         0.9499438346        1.7978043765        4.6242557037
 H        -0.2656436034       -0.8756941155        1.0618568730
 H         1.1163292996       -0.2229660317        0.4506718469
 H        -0.3052994192        0.8968808122        1.1132128676
 H         0.5251547618       -0.7599539054        4.7218888546
 H        -0.6382313091        0.1717097340        3.8849811772
 H        -0.3236307871       -1.4284338684        3.2873712606
 H         2.9456947953        3.6899716335        3.1300025918
 H         2.0741465095        4.3556340927        4.5039806570
 H         7.4422360402        3.2455102753        4.3832799715
 H         6.7177881138        1.6163211195        4.1879104748
 H         3.9798284214        5.4766943261        4.9985871099
 H         5.4683534167        5.2367356382        5.8932221988
 H         3.9989227501        4.8627168775        6.6658089225
 H         6.4810568180        2.8062136701        6.7339802610
 H         4.8502073417        2.3241810762        7.1686505087
 H         5.7205223189        1.5024465117        5.9233247490
 H         8.5638574971        2.2734669263        2.3433864053
 H         7.5934723578        3.5735658935        1.8038534476
 H         6.2412161049        2.4213470234       -2.6236507897
 H         7.1906685040        0.9085356115       -3.2274897117
 H         7.3401458568        3.4853969226       -0.3907061117
 H         8.1819817248        2.6854421487       -1.6500516275
 H         8.9423384700        2.8693256400       -0.1841042368
 H         9.0182404623        0.5163588579        0.9429100791
 H         7.6861561951       -0.6891345120        0.3083567631
 H         8.7967698514        0.1727066609       -0.6688183484
 H         5.0178413415        1.0366371264       -4.5354988515
 H         4.8836975017       -0.2977277976       -3.3869612770
 H         1.3690858367       -2.1528697597       -4.2539914580
 H         0.5440236881       -2.2095156626       -2.6130434329
 H         1.2413619494        2.2458450090       -2.3195073708
 H         0.3251596328        1.3637626878       -3.6061677180
 H         1.5237739681        2.6239664401       -3.9569346503
 H         1.8198213021       -0.3829671732       -5.2648234369
 H         2.3454327221        1.3165559053       -5.5314614407
 H         3.5534032990        0.1297659408       -5.3381530111
 H         0.0851679970       -0.3358527582       -4.9428918917
 H        -0.8017520192       -0.2579493740       -3.4944368659
 H        -4.7487774825       -1.9566419171       -4.3529269796
 H        -3.4711706336       -1.4494793801       -3.2517735569
 H        -1.0603338518        0.0767455765       -6.6818433889
 H        -2.0069641969       -0.8843278121       -7.9364325947
 H        -0.4459696130       -1.3961914622       -7.2514301690
 H        -2.3094912789       -3.6594220763       -7.1807359355
 H        -2.9880641648       -3.6612975684       -5.6840482873
 H        -3.7983445570       -2.7623062707       -6.9120488443
 H        -5.1790119668        0.6952934582       -4.5527746871
 H        -5.9411823507       -0.1052112727       -3.1426961717
 H        -3.2097247907        0.6236634804       -0.3633393465
 H        -3.1644268552        2.1241911589        0.3017880925
 H        -3.4187868618        3.8281891813       -3.1765149992
 H        -2.6216395982        2.8830169413       -2.0434441578
 H        -3.6932191750        4.1845591074       -1.4305490108
 H        -6.8398294055        2.3308698266       -3.0011303836
 H        -6.1429277686        3.9992706181       -2.7928130543
 H        -5.6703186144        3.0306657243       -4.1838455210
 H        -5.3406649972        0.9158137268        1.6159381392
 H        -3.7591674983        1.4152070796        2.2040650494
 H        -5.3399573815       -3.4175402265        1.6681685353
 H        -6.7805331072       -3.5586463444        2.6810702382
 H        -3.7436281003       -3.2855440362        2.4088408164
 H        -3.4589600742       -3.2092082062        4.1030127531
 H        -2.3982039600       -2.3812093494        2.9872358326
 H        -3.2389120698       -0.8243854992        4.9765208941
 H        -3.8699724860        0.5704110742        4.0273294815
 H        -4.8287416374       -0.3820842459        5.0395762289
 H        -7.5666457161       -1.4508830867        0.9734235246
 H        -6.3478717514       -2.2940262451       -0.0024240516
 H       -11.6371674081       -1.8280554035        0.3386723694
 H       -12.0726826652       -3.4674319285       -0.0564628686
 H       -10.8862912997       -3.3180627403        1.1335351597
 H        -7.3793604643       -2.2237275324       -1.8544828128
 H        -8.4891148436       -3.0282699911       -2.9451108757
 H        -7.2400508235       -3.6806592332       -2.2098399252
 H        -8.8773141464       -5.7226069027       -1.5144197364
 H        -9.6379786177       -5.4325624180        0.0144810558
 H       -10.5213224825       -4.9071827338       -1.3394601824
 Na        3.3811043112        0.5917048359        0.0858807223
