155

 C         2.8168190212       -1.5886715938        4.0273874291
 C         2.5116328010       -0.8971106852        2.6322344077
 C         1.2370268690       -0.0544944548        2.4677116720
 C         1.5735455664        1.4476002890        2.6102717598
 C         0.9220007562        2.3512419485        3.7112717223
 C         0.5077487029       -0.3948000336        1.0969055847
 C         0.1358372803       -0.4302649875        3.6161105998
 O         3.2872936630       -1.0736988122        1.6689197423
 O         2.2813426379        1.8532290134        1.7140182688
 C         1.9684092536        3.3034887128        4.2605473609
 C         3.2439005042        2.5397161635        5.0452261618
 C         4.5858786875        3.3470036537        5.3249986214
 C         5.3471128031        3.3239723763        3.8176690000
 C         6.6248577072        2.5128310136        3.6749860852
 O         3.1318745198        1.3959871517        5.3499017028
 O         5.0432138371        4.0841726081        2.9147405030
 C         4.3164016446        4.8301517515        5.6941982525
 C         5.3537449440        2.5846258620        6.3776224349
 C         7.1381929806        2.5960641884        2.2524321170
 C         6.4350836553        1.6253671440        1.3927656986
 C         7.1486097320        1.4269565181       -0.0589589553
 C         6.2300016125        0.8429959127       -1.1269558610
 C         6.1687741947        1.4104799389       -2.5905482784
 C         7.8827236234        2.6500907455       -0.5930801103
 C         8.1745099792        0.2692844148        0.2951704995
 O         5.3407253341        1.1281033881        1.5972887531
 O         5.4443699000       -0.0394949665       -0.8310613299
 C         4.9913015778        0.7741875604       -3.4423232044
 C         3.5792402772        1.2913569397       -2.9561519377
 C         2.2654000969        0.7289795316       -3.5571202696
 C         1.8975885458       -0.6511288102       -2.8109603330
 C         0.9295028679       -1.7004641384       -3.2662163352
 O         3.4779496497        1.9011543021       -1.9398603818
 O         2.3339498976       -0.7475767897       -1.6477495045
 C         1.1376733868        1.7927958725       -3.2406211884
 C         2.4632789262        0.4607162070       -5.0434729696
 C        -0.4033833819       -1.0874382545       -3.8570470630
 C        -1.0518685458       -2.0727604569       -4.8048411077
 C        -1.9762478959       -1.5671757668       -6.0380144363
 C        -3.0706384504       -0.5579313983       -5.3798084931
 C        -4.1489896286       -1.0759444420       -4.2573020252
 C        -1.1911520001       -0.7987972340       -7.1593605843
 C        -2.7393120290       -2.7098774134       -6.6139944837
 O        -0.9738706532       -3.3042607768       -4.5788648948
 O        -3.1623188917        0.5942119549       -5.8109349782
 C        -4.9101307746        0.0122670803       -3.5400915678
 C        -3.9401544831        1.1010296472       -2.9374149477
 C        -4.5325107425        2.3999232204       -2.3606048108
 C        -4.9655519025        1.7239585682       -0.9014569201
 C        -3.8054657628        1.4115009407        0.0170509700
 O        -2.7402963404        0.8575355699       -2.9434330977
 O        -6.1170553056        1.5055199239       -0.6554921263
 C        -3.5311907179        3.5668541711       -2.2160941442
 C        -5.9338538483        2.8740034174       -2.9355637631
 C        -4.3627428847        0.7951897002        1.4292972064
 C        -3.7153991235       -0.5502102365        1.8310487043
 C        -4.2165777781       -1.3438715402        3.0855154264
 C        -5.7113226129       -1.6829449115        2.8562742383
 C        -6.1676550446       -2.9249632940        2.0673614145
 C        -3.4565593995       -2.6106921672        3.4290358690
 C        -4.1031993569       -0.4655792862        4.3987791296
 O        -2.8207875699       -1.0443766514        1.1809496167
 O        -6.5094634605       -0.9682919801        3.4477293154
 C        -6.9817803345       -2.5898919055        0.7759252274
 C        -8.1847654021       -3.5520074853        0.5885604654
 C        -8.9094513385       -3.5607642093       -0.8246184433
 C       -10.1961204891       -2.7099925731       -0.8959244629
 C       -11.2348318461       -2.7637162404        0.2457694129
 O        -8.3452409602       -4.4247995228        1.4170567449
 O       -10.3401042232       -1.8901044386       -1.7752488506
 C        -8.0232201167       -3.0813858326       -1.9468464929
 C        -9.2914075049       -5.0687913039       -1.1451474360
 H         2.4423859025       -2.6157209598        3.8405151588
 H         3.9250003280       -1.7007127288        4.0747821498
 H         2.3208836127       -1.1916395508        4.9066578614
 H         0.2015936608        2.9462551575        3.2388516829
 H         0.4656392773        1.8514176607        4.5416454408
 H         0.2904636556       -1.5230388813        0.9461468898
 H         1.1268504621       -0.1791401041        0.2653836932
 H        -0.4654802412        0.0733303689        1.0637080599
 H         0.5688626201       -0.1343675473        4.5990828406
 H        -0.8591819672        0.0331465928        3.4542173360
 H         0.0020323524       -1.4888167887        3.7272652903
 H         2.4907411722        3.9007990505        3.4700136304
 H         1.6217372924        4.0258422541        5.0211085561
 H         7.3811056683        2.8353257715        4.3255628481
 H         6.4361430763        1.4721578380        3.9810286037
 H         3.5647913732        5.1856814760        5.0253045842
 H         5.1803321185        5.5729281362        5.6913971345
 H         3.9009443890        4.9404867587        6.7471106723
 H         6.4220215357        2.8711573068        6.3126626418
 H         4.9319372489        2.7219361431        7.3647716446
 H         5.3650851524        1.5099620615        6.1604041089
 H         8.1632025735        2.4544936501        2.2960295654
 H         7.0014324191        3.5124698511        1.7135024101
 H         5.9941685133        2.4807210457       -2.5019134719
 H         6.9775713483        1.2219252770       -3.2431112803
 H         7.3628087122        3.4325849440       -1.1302319437
 H         8.6147325599        2.2881715497       -1.2216714376
 H         8.5348425651        3.1985529716        0.1298747559
 H         8.7697534396        0.6306648394        1.1538468980
 H         7.6936730615       -0.6271475045        0.5698559225
 H         8.8920804018        0.1570387628       -0.5762386889
 H         5.1876166743        0.9446941143       -4.4962592371
 H         4.8727108908       -0.3175515758       -3.3954383341
 H         1.2901319640       -2.3413224579       -4.0752337560
 H         0.6764455086       -2.2306003715       -2.3449396852
 H         0.8222021742        1.8143182308       -2.2157201210
 H         0.3097851020        1.5302450953       -3.8720136223
 H         1.4756366372        2.8295859114       -3.5122843948
 H         1.6792003387       -0.2268656090       -5.3774586654
 H         2.4711584005        1.3136733583       -5.7622284442
 H         3.3025223825       -0.1221772747       -5.2162198268
 H        -0.1558288028       -0.1715479997       -4.3900349519
 H        -0.9650355652       -0.7486702915       -2.9324964089
 H        -4.9004934347       -1.6827145952       -4.8802216911
 H        -3.6692508033       -1.7733006433       -3.5553888591
 H        -0.5613243749       -0.0348276969       -6.6708056950
 H        -1.8982604367       -0.3213575012       -7.8891799031
 H        -0.4418201249       -1.3794919537       -7.7316545424
 H        -2.0326328181       -3.5386459689       -6.8546547530
 H        -3.3337855584       -3.2212084086       -5.8473866420
 H        -3.3777738786       -2.4453694736       -7.4945031599
 H        -5.6415006410        0.5169970726       -4.2370262587
 H        -5.4354987267       -0.3569530392       -2.6677806725
 H        -3.0941268617        0.6719035366       -0.4913188067
 H        -3.0900283979        2.2891910891        0.1791659572
 H        -3.1975291647        3.9060898002       -3.2141442953
 H        -2.6561041192        3.4532316010       -1.6573314046
 H        -4.0251909326        4.3866239585       -1.7092145515
 H        -6.7115286079        2.1435010189       -2.6378580841
 H        -6.1852841364        3.8032484600       -2.6329403986
 H        -5.8422057604        3.0348809044       -4.0008879291
 H        -5.4136302420        0.6356078714        1.2559264783
 H        -4.2728691302        1.4482460071        2.3019949631
 H        -5.3411020049       -3.5151335258        1.8254558428
 H        -6.7441728284       -3.5187385843        2.6802410807
 H        -3.4879281790       -3.4531483484        2.6688997672
 H        -4.0476185357       -2.9965508147        4.2792798846
 H        -2.4165354905       -2.3757470231        3.7889845971
 H        -3.6238514606       -1.0362422830        5.1679346763
 H        -3.7680033758        0.5971643880        4.2782480165
 H        -5.0635757135       -0.3703701294        4.9260755252
 H        -7.4995666068       -1.5602971456        0.9083260730
 H        -6.3227363355       -2.6094764597       -0.0707296320
 H       -12.0643592805       -2.0387936508       -0.0712483341
 H       -11.6365915248       -3.8358217266        0.2833394873
 H       -10.8303110997       -2.6477798129        1.2135106925
 H        -7.8590460022       -2.0181879917       -2.0181064148
 H        -8.3916619061       -3.3079507316       -2.9702509482
 H        -6.9282176222       -3.3487463851       -2.0625891977
 H        -8.3800184861       -5.4898240008       -1.5514657975
 H        -9.5923863134       -5.7415485921       -0.3384081098
 H       -10.1473298009       -5.1285363418       -1.8863367587
 Na        3.6598220611        0.6591286241        0.1181489794
