155

 C         0.4559150357       -1.8239676420        1.3575131845
 C         0.4545277280       -0.3434832697        1.1802044464
 C        -0.6727231846        0.2924194067        0.2946094589
 C        -1.7679405691        0.8099072705        1.3008284679
 C        -3.0568371300        0.0443041637        1.3293791409
 C        -0.1084618679        1.5305692307       -0.4814205551
 C        -1.1702815931       -0.6847208899       -0.7580524937
 O         1.1959375966        0.3490863318        1.9059318613
 O        -1.4746725388        1.6756803750        2.1332974655
 C        -3.8623930652        0.2371865024        2.6136829242
 C        -3.3871764781       -0.4175584851        3.8966936922
 C        -4.0149479690        0.0109642549        5.2892009686
 C        -2.8839149920        0.8331202970        6.0489292214
 C        -1.6370576323        0.0534621574        6.3429583984
 O        -2.7014153352       -1.4589517098        3.8604017711
 O        -2.9010793545        2.0474407044        5.9919491546
 C        -5.2929176047        0.8361543873        5.0126392717
 C        -4.2219672635       -1.1863240662        6.2244809309
 C        -0.6238049500        0.8627745748        7.0599577182
 C         0.2891689301        1.6332560623        6.1318025763
 C         1.5546188809        2.4583736017        6.7974193999
 C         2.4060475905        3.1279960179        5.7056341059
 C         2.7637185169        4.6260473858        5.6754076056
 C         0.8621106741        3.4908335285        7.8212582121
 C         2.4922852354        1.3812674159        7.4257558897
 O         0.1885303113        1.5355309143        4.9080244472
 O         2.6013452370        2.3998370036        4.7716688834
 C         3.3856719425        5.0920213981        4.3609470777
 C         2.3155483268        5.2818254408        3.2658159813
 C         2.7648461020        5.5317998964        1.7097133122
 C         1.5347763918        5.1400104709        0.7881303988
 C         1.4524862950        5.5638842688       -0.6474386973
 O         1.1531551941        5.2585598410        3.5667404494
 O         0.6989867632        4.3348384678        1.2077493001
 C         3.0604995610        7.0374773994        1.5904270582
 C         4.0357503804        4.6931001127        1.4207172134
 C         0.4424306544        4.7496228122       -1.4808788545
 C        -0.0560747480        5.0738669327       -2.9447125870
 C         1.0002129537        4.8388127968       -4.0754935486
 C         1.2566796739        3.2702817759       -4.0074654071
 C         0.2619581746        2.2283241042       -4.6282288600
 C         0.3670231677        5.2119673252       -5.5030778096
 C         2.2649113291        5.7683519441       -3.8452523573
 O        -1.2196978046        5.3219313453       -3.2277871279
 O         2.1800102908        2.9256586456       -3.3341058955
 C         0.7525084238        1.6602610649       -6.1282387526
 C        -0.1091297323        0.5173887248       -6.6407091851
 C         0.6583289591       -0.6972563541       -7.5719711839
 C         1.1119898834       -1.7672974308       -6.6401961226
 C         0.1399108117       -2.7696762020       -6.1403811324
 O        -1.3179615773        0.4263750204       -6.4438783535
 O         2.2287585208       -1.8377215329       -6.2054824202
 C        -0.4680669212       -1.0234828295       -8.6437483307
 C         1.8247901121       -0.0540691964       -8.4435476424
 C         0.5821528239       -3.8445334518       -5.1546516849
 C        -0.2022322586       -5.1247067634       -5.2001178995
 C         0.2002911171       -6.2026533030       -4.0899338495
 C        -0.3332025037       -5.5574441105       -2.7359887654
 C        -1.8726099766       -5.1335762615       -2.6338985261
 C        -0.5353902278       -7.5069133576       -4.3242726470
 C         1.7228505906       -6.4011450067       -4.0234508355
 O        -1.1088086526       -5.2114865218       -6.0288098930
 O         0.4279584620       -5.2800085187       -1.8679888667
 C        -2.6293729021       -5.6048791358       -1.3821130544
 C        -4.0005908074       -4.9742662238       -1.2516447011
 C        -5.2499031900       -5.9050423500       -1.4016817803
 C        -5.8959374954       -6.2802672490       -0.0269359637
 C        -4.9535301720       -7.0299115906        0.9915705580
 O        -4.0602922948       -3.8007299706       -1.1003037849
 O        -6.9321013623       -5.8479864282        0.4065564960
 C        -6.3305962794       -5.0201680103       -2.1070998522
 C        -5.0396718938       -7.2857527763       -2.0492515704
 H         0.7097812558       -2.2923269947        0.4379073388
 H         1.1008771477       -2.1366800246        2.1859619323
 H        -0.5384593837       -2.1083010949        1.5597550081
 H        -3.7137424218        0.3283257740        0.4768360322
 H        -2.9195797200       -1.1028431983        1.0953650654
 H         0.6832034818        1.1928210563       -1.1933567403
 H         0.3676441641        2.0975346077        0.3197023442
 H        -0.7420541151        2.1644123884       -1.0896471953
 H        -1.5885543211       -1.6423055152       -0.3300676336
 H        -2.0192850424       -0.1852103668       -1.2564641033
 H        -0.4713339150       -0.9285523468       -1.5099655803
 H        -4.0854449846        1.3138781934        2.6910467151
 H        -4.8691930413       -0.3514128397        2.4927327694
 H        -1.9811147597       -0.8102914014        6.9686732764
 H        -1.1750580611       -0.4417983162        5.4167417422
 H        -5.0658154436        1.8019098652        4.5835093338
 H        -5.8996030350        0.7949971017        5.9006980331
 H        -5.8664898783        0.2698962642        4.2858508005
 H        -4.5011574689       -0.8598791317        7.2862805231
 H        -5.0372082580       -1.7570170785        5.8343142072
 H        -3.3106289116       -1.6748567870        6.2158266646
 H        -0.0422074662        0.2326248257        7.6815649252
 H        -1.2475939561        1.5134051221        7.6747188774
 H         1.9029226250        5.2471778698        6.1331555894
 H         3.4051906169        4.7243337048        6.5324411303
 H        -0.0406218213        3.8151587257        7.4425224850
 H         1.5683018921        4.3566623887        8.0635239570
 H         0.8431455422        2.9479014822        8.6961597124
 H         2.0558460063        0.9983695004        8.3524123851
 H         2.5148484451        0.5643769221        6.5844521843
 H         3.5456525449        1.7959070483        7.5246814879
 H         3.7390079598        6.1503531422        4.5727808831
 H         4.3151741784        4.6242740539        4.0729421028
 H         1.1810643304        6.6065397125       -0.8703296930
 H         2.4542617205        5.5800684717       -1.1711660948
 H         2.1765001303        7.6663669199        1.5149199920
 H         3.5747196206        7.2729355888        0.6696401007
 H         3.6967357271        7.3648860603        2.3934334504
 H         4.4114688632        4.9635710969        0.4362903244
 H         4.8675247358        4.8659212558        2.0282461565
 H         3.8053695958        3.6137354659        1.4226435495
 H        -0.4375892604        4.7331053937       -0.7757616422
 H         0.6883274324        3.6573554994       -1.5832222064
 H         0.2821815639        1.3932214708       -3.9312394837
 H        -0.8318295920        2.5356035902       -4.6745547401
 H         1.1038712895        5.3056334635       -6.2523935955
 H        -0.1538202425        6.1563155693       -5.4009708132
 H        -0.4420080641        4.5079253655       -5.7421930978
 H         3.1678974113        5.3364529780       -3.3718438778
 H         2.6217902890        6.0070337036       -4.8284267716
 H         1.9210441952        6.6367094254       -3.3171917945
 H         0.5195877666        2.5739892227       -6.7865208752
 H         1.7753718503        1.3646136505       -6.0021270415
 H        -0.8107066876       -2.1755339194       -5.9246045351
 H        -0.1948979517       -3.2318927734       -7.0519414055
 H        -0.3248848055       -0.3303499197       -9.4226372003
 H        -1.3942341737       -0.8124390572       -8.1318038567
 H        -0.2840192696       -1.9426897439       -9.1192051040
 H         2.7594989835        0.2246294690       -7.8846025395
 H         2.0534490921       -0.7189943954       -9.2748576223
 H         1.4882898685        0.8759711846       -8.8974040438
 H         0.5193425543       -3.3848274227       -4.0838898421
 H         1.6934225116       -3.9739348592       -5.2308026500
 H        -1.8382812918       -3.9323840527       -2.5210350241
 H        -2.4339566442       -5.5043247034       -3.5097042518
 H        -0.0465709889       -8.1660927294       -3.6267271101
 H        -0.4637276222       -8.0364139472       -5.3187880966
 H        -1.5863028196       -7.4092943888       -4.0207677729
 H         1.9204932196       -7.2200029067       -3.3078020677
 H         2.2522350897       -6.7506349530       -4.9889257646
 H         2.2289055440       -5.4285401983       -3.8313326990
 H        -2.7865765413       -6.6700070021       -1.4349941437
 H        -2.0195626267       -5.2236524450       -0.5334390238
 H        -5.4991898695       -7.0826211264        1.8883100955
 H        -4.6299260920       -8.0466076573        0.8166401575
 H        -4.0771706066       -6.3558875894        1.2293039377
 H        -6.2395188723       -3.9103590414       -1.9223767815
 H        -7.3827652010       -5.2615502622       -1.7297693869
 H        -6.3406066914       -5.0722638087       -3.2015459103
 H        -5.9155970904       -7.8558646257       -1.8020221472
 H        -4.9178417225       -7.1765495842       -3.1411587046
 H        -4.1219422638       -7.7850335109       -1.6524482334
 Na        0.6182132509        2.6559916140        2.9246561879
