155

 C         1.1319206577       -1.9080690006        1.0461211782
 C         0.5501830521       -0.5073288282        1.4395135950
 C        -0.5871316821        0.1763957525        0.5685084932
 C        -1.5411115329        1.0824041296        1.3455293830
 C        -3.0661950521        0.9526111523        1.3684870124
 C         0.1558881325        1.0535026758       -0.4573604920
 C        -1.4056774171       -0.8127240388       -0.2905651233
 O         0.9451364497        0.0346956293        2.4371533958
 O        -1.0509261038        1.9589880255        2.0419551981
 C        -3.6383264379        1.0733235111        2.8214266751
 C        -3.5396110948       -0.2345211974        3.6825964669
 C        -3.8552853217       -0.1711696576        5.3212915407
 C        -2.7714956777        0.7466018008        5.9447252785
 C        -1.6206812934        0.0388555713        6.4889936564
 O        -3.2498391632       -1.3246594460        3.2090484818
 O        -2.9036890219        1.9569658669        5.7425873333
 C        -5.2329024164        0.5283619423        5.5473663083
 C        -3.9380745280       -1.6361996856        5.8869575218
 C        -0.5882459838        0.9000942533        7.1454525044
 C         0.0710309782        1.8182437955        6.1893148468
 C         1.1819728463        2.8525862506        6.7373380977
 C         1.8676943478        3.6277550192        5.5573351911
 C         2.3543589251        5.0622895544        5.7415030837
 C         0.5133872883        3.8279589145        7.8074041845
 C         2.2171692399        1.9898040600        7.5446893311
 O        -0.1230447128        1.5772536204        5.0020606015
 O         2.2974418651        2.9970886444        4.5804576023
 C         2.9883848932        5.5621157516        4.4478109533
 C         2.0116177675        5.3615658437        3.2864430456
 C         2.5268712894        5.6693970938        1.8712150614
 C         1.5306703211        4.8852272989        0.9674562109
 C         0.8910937141        5.4853652025       -0.3407269333
 O         0.8550784297        4.9628052853        3.4866826520
 O         1.1861278781        3.7696546357        1.3555259958
 C         2.5157161659        7.2271321763        1.7007114593
 C         3.9039311806        5.1795311018        1.4842823813
 C         1.0722030313        4.4902129851       -1.5409830457
 C         0.1278324694        4.7389272594       -2.6693622239
 C         0.7970988407        4.8688925727       -4.0559852869
 C         1.5500529646        3.5559521647       -4.3076086948
 C         0.7737442462        2.3742591980       -4.6688933109
 C        -0.3458661221        5.1093031696       -5.1104222868
 C         1.7097719090        6.1860794328       -4.1812906803
 O        -1.0628407038        4.7748354594       -2.5012975883
 O         2.7738702533        3.4938770370       -4.3470511519
 C         1.3523538993        1.5858157118       -5.8131628688
 C         0.5490571628        0.3577131785       -6.2024172578
 C         0.8991715443       -0.4793566113       -7.5204314864
 C         1.2863059528       -1.9185864331       -6.7895392584
 C         0.1318166106       -2.7692883265       -6.3233231358
 O        -0.4173202862       -0.0264953492       -5.5473218077
 O         2.5114991566       -2.0117229939       -6.6409444099
 C        -0.3985249005       -0.4967402932       -8.3791851967
 C         2.1451157742        0.0596303392       -8.2741276249
 C         0.7755055397       -3.6898617820       -5.2425697924
 C         0.1230636184       -5.0783905858       -5.2608582304
 C         0.2955046982       -5.9286014757       -3.8837212821
 C        -0.5010826146       -5.4482589173       -2.6204875721
 C        -2.0279399254       -5.1919251049       -2.7743969197
 C        -0.3952455178       -7.3511597479       -4.1823710530
 C         1.7688714936       -6.0582897672       -3.5904632219
 O        -0.6226955584       -5.5473428993       -6.1316182114
 O         0.0404821622       -5.1931642064       -1.6028516005
 C        -2.7581267599       -6.0081091341       -1.6814365682
 C        -4.1071660427       -5.4165321405       -1.5510338174
 C        -5.4045985406       -6.3805793142       -1.8987134264
 C        -6.1232627947       -6.5850317923       -0.4695866808
 C        -5.2983706779       -7.2773063302        0.5757901973
 O        -4.2583877753       -4.3049221730       -1.1469277898
 O        -7.2450849093       -6.2224181678       -0.2380053568
 C        -6.3462219526       -5.5965537511       -2.8562124675
 C        -5.1275372838       -7.7449740251       -2.5090474202
 H         1.0054854657       -2.5894321309        1.8380199328
 H         0.7395589166       -2.4428693782        0.1038351904
 H         2.1676036986       -1.6111351428        1.0375052690
 H        -3.6211043473        1.7512781547        0.7905081074
 H        -3.4298778308        0.0156825317        0.9913809393
 H         1.1187275049        0.7295738447       -0.7547512454
 H         0.5074471963        2.0628683889       -0.0127795712
 H        -0.5182584758        1.0893685211       -1.3332213749
 H        -1.8392032513       -1.5503088925        0.3270024110
 H        -2.2835319414       -0.2825578987       -0.8291667880
 H        -0.8377345539       -1.3732827802       -1.0711935536
 H        -3.2117557677        1.9763967535        3.3090023526
 H        -4.6644918544        1.2011950125        2.5731087482
 H        -2.0200175939       -0.5942135315        7.3377167530
 H        -1.1806846741       -0.6563741709        5.7594896019
 H        -5.1653963933        1.6428993650        5.6942435897
 H        -5.6846936141        0.0242557316        6.4172108739
 H        -5.8644644809        0.3610527313        4.7057061108
 H        -4.1745869865       -1.5970518649        6.9426721042
 H        -4.5760801222       -2.2206890646        5.2626443941
 H        -3.0396289873       -2.2347295875        5.7053068651
 H         0.0349977613        0.1173983543        7.6795325553
 H        -1.1235287313        1.4561336175        7.9121826215
 H         1.4955863428        5.6059662557        6.0200104510
 H         3.0761425777        5.1841546634        6.6190764253
 H        -0.4750188474        4.1470446026        7.6180430089
 H         1.3536881635        4.6385855209        8.0225268329
 H         0.2891656069        3.2114605923        8.6564962961
 H         1.9868259113        1.7815927807        8.5805594098
 H         1.9829665212        0.9960211653        7.0714674423
 H         3.2475891422        2.3006103751        7.3513951532
 H         3.2799554239        6.6067533124        4.6598357053
 H         3.9360203088        4.9567784192        4.2780548660
 H        -0.1296284911        5.6699198423       -0.0840917443
 H         1.3553107228        6.3993665253       -0.5812156703
 H         1.5582659536        7.7804091396        1.7213382046
 H         3.1261746130        7.5129209353        0.8554274425
 H         3.0626749917        7.6146835992        2.5247069840
 H         4.2669672881        5.5740762121        0.5389416232
 H         4.5605266831        5.4839168768        2.2953233046
 H         3.9666685132        4.1181589827        1.3782767388
 H         0.9615578875        3.5046909290       -1.0775443326
 H         2.0828246098        4.5624848745       -2.0182517550
 H         0.9266979207        1.7678617887       -3.7341569579
 H        -0.2850548728        2.5026002167       -4.8303678401
 H         0.1444611561        5.3813308778       -6.0622578501
 H        -0.9162498326        5.9722068117       -4.8068240469
 H        -1.0396944624        4.2941411573       -5.3118177351
 H         2.3025675493        6.1784258511       -3.2889763929
 H         2.2792746243        6.0730295516       -5.1173509539
 H         1.1431700880        7.0704303992       -4.2633793609
 H         1.4112901897        2.1966571595       -6.6551473084
 H         2.4008200514        1.4027029294       -5.6627774229
 H        -0.6893309673       -2.1582476674       -6.0373493762
 H        -0.1617300771       -3.4608978871       -7.1357473748
 H        -0.4221623399        0.4855927820       -8.8119387090
 H        -1.2875274612       -0.6699290985       -7.7392626237
 H        -0.2775024713       -1.3317132020       -9.0409884406
 H         3.1233815444        0.1155698898       -7.6924927340
 H         2.4494563616       -0.5843147998       -9.0949736262
 H         1.9314374977        1.1002582507       -8.5689898620
 H         0.8277850351       -3.3232195578       -4.2270008607
 H         1.8730947938       -3.7853571831       -5.6136936121
 H        -2.1896548429       -4.2044655895       -2.4472470561
 H        -2.3798551175       -5.3346873275       -3.7526956113
 H         0.3125757153       -8.2055051818       -4.2921023993
 H        -1.0036206580       -7.2841613925       -5.0739430893
 H        -1.0862612546       -7.7364854869       -3.3815535932
 H         1.9798976397       -6.4495890914       -2.5608008680
 H         2.3208728391       -6.5198832375       -4.4287690885
 H         2.2242963767       -5.0609324222       -3.3894725077
 H        -2.7549401759       -7.0588819269       -1.8735220661
 H        -2.1681169110       -5.8914928129       -0.7611692359
 H        -5.7488928259       -7.1962021429        1.5484173218
 H        -5.2913337906       -8.3750306586        0.3594263270
 H        -4.2718905062       -6.9081754196        0.6019716018
 H        -6.3506849347       -4.5180627204       -2.5905150793
 H        -7.3733157404       -5.9881326570       -2.7924074915
 H        -6.0693273142       -5.5475305293       -3.9464198053
 H        -6.0226637710       -8.3573380770       -2.5085627336
 H        -4.9469125183       -7.5454419535       -3.5180636415
 H        -4.3722512855       -8.3350926397       -1.9402714784
 Na        0.6591707109        2.4797638015        3.1932601546
