155

 C         0.3699256125       -2.2750161092        2.1312682507
 C         0.3644063190       -0.8379853590        1.7947831839
 C        -0.6806688642       -0.2225115497        0.7925821300
 C        -1.5221105210        0.8248642032        1.6536515329
 C        -3.0562141668        0.7754891784        1.5808512575
 C         0.0329267367        0.6764949499       -0.3310414871
 C        -1.3475998435       -1.3683098422        0.0340211940
 O         1.1963532781       -0.0648849299        2.2491605195
 O        -0.9440108182        1.8252585830        2.0460677096
 C        -3.6714393848        1.0252244255        2.9803931001
 C        -3.1592021007       -0.0122687821        3.9992947704
 C        -4.0104277343       -0.2639367910        5.2925208890
 C        -3.1107414556        0.5825179719        6.2709299992
 C        -1.8047861041        0.0246305550        6.8877282676
 O        -2.1260459911       -0.6439651258        3.8372258866
 O        -3.4972155488        1.6673585984        6.5193197162
 C        -5.4499996869        0.3069790086        5.1703501246
 C        -4.0380945074       -1.7581430214        5.5546200376
 C        -1.0512188661        1.2812972897        7.3688180874
 C        -0.0977381778        1.9030557560        6.4013838698
 C         0.8041300207        3.1271126541        6.9570579606
 C         1.6305641115        4.0027919182        5.7384541029
 C         1.1671202836        5.5136179631        5.7331300079
 C        -0.1273188367        4.0356342501        7.8218177834
 C         1.9602687999        2.5857081854        7.7780442274
 O        -0.1209292972        1.6174701789        5.1842398675
 O         2.6918504834        3.6687018296        5.2840773391
 C         1.7597383880        6.1694146422        4.4069037141
 C         1.3281466707        5.3147350574        3.2495577817
 C         1.7952819447        5.8817530727        1.8163797720
 C         1.7768245967        4.6743798745        0.7861645991
 C         1.0124039055        4.6155037866       -0.5209606226
 O         0.6517911109        4.3489196477        3.4402600415
 O         2.5088255430        3.7691986284        1.2277163625
 C         0.8276342845        7.1243549819        1.5424617052
 C         3.2959620378        6.3510812281        1.9826749663
 C         1.4128731049        5.4759939540       -1.7581269907
 C         0.4601587656        4.9732964337       -2.8356332268
 C         0.7058645897        5.4974117653       -4.2790644573
 C         1.5945973111        4.3310562571       -4.9825864912
 C         1.1953008840        2.8414232244       -4.8193190448
 C        -0.6073183257        5.5543651713       -5.0136313165
 C         1.6543252010        6.7244065583       -4.2485297696
 O        -0.4502685919        4.2441425795       -2.5190764183
 O         2.5299897021        4.7937120728       -5.6166148566
 C         1.5093416041        1.9537038625       -6.0268442439
 C         1.4952155302        0.4103927051       -5.5666502889
 C         1.5110688134       -0.4964867354       -6.8324903403
 C         2.0067469857       -1.9759679939       -6.5401938249
 C         1.1548557027       -2.8704206337       -5.5687010214
 O         1.5542175961        0.0267007054       -4.4233303651
 O         3.0669240277       -2.4651288368       -6.8499212727
 C         0.0144469980       -0.4484420011       -7.3065329786
 C         2.4358827325       -0.0109893784       -7.9245153825
 C         1.5602560404       -4.4317813687       -5.6469186754
 C         0.3895726721       -5.2776304861       -5.1702045887
 C         0.4633917894       -5.7746506207       -3.6245611699
 C        -0.7738165078       -5.1323341239       -2.8279956618
 C        -2.1360527286       -5.2915700828       -3.4018979109
 C         0.1926983554       -7.2892755320       -3.6151354326
 C         1.7381371434       -5.4089634514       -2.9152416787
 O        -0.5737777783       -5.4500420035       -5.8862274993
 O        -0.6320815619       -4.6067298228       -1.6999279457
 C        -3.0728897965       -5.9343376502       -2.3066797372
 C        -4.5784324034       -5.8172571280       -2.3608644242
 C        -5.4690039198       -7.0741209585       -2.8008463669
 C        -6.3873027894       -7.2444838271       -1.4365094118
 C        -5.6555928475       -8.1762925510       -0.4170555788
 O        -5.2060209196       -4.9523935526       -1.7891255964
 O        -7.5395373257       -6.8511300856       -1.4034779222
 C        -6.2994300344       -6.5811455609       -4.0278813207
 C        -4.7251377998       -8.3533133386       -3.1914116989
 H        -0.7364820454       -2.6303960592        2.2361751481
 H         0.8334630785       -2.7738629905        1.3110799283
 H         0.9965178017       -2.3726249988        3.0535988795
 H        -3.4230146950        1.5052136369        0.8614778205
 H        -3.4514461721       -0.2442983977        1.2117450127
 H         0.8753600786        0.0955233311       -0.7619180772
 H         0.3213643730        1.5701523725        0.0931510261
 H        -0.5057456164        0.9112821923       -1.2753783901
 H        -1.9508530503       -2.0530830156        0.6646149069
 H        -1.9625936367       -0.9172421460       -0.6966563410
 H        -0.6619347020       -2.0029438985       -0.5516312472
 H        -3.5326825761        2.0226013138        3.4097433256
 H        -4.7579720512        1.0994238761        2.9173171193
 H        -1.9227933690       -0.7456004385        7.6484518922
 H        -1.2283204218       -0.3647727311        6.0884490037
 H        -5.5767213700        1.3577500706        5.1993935782
 H        -5.9274719951       -0.2609666775        5.9348178458
 H        -5.9865737511        0.0326549741        4.2716981272
 H        -4.6933387070       -2.0186385886        6.4428216001
 H        -4.2554673164       -2.3123579497        4.6337313793
 H        -3.0958409455       -2.1937213283        5.8514146657
 H        -0.5911474331        1.1057130764        8.3440431555
 H        -1.7227129630        2.0617502983        7.6094978077
 H         0.1060964995        5.6320500520        5.7726097883
 H         1.7791648965        5.8821474002        6.5643305873
 H        -1.0706605522        4.4762307774        7.3944016390
 H         0.3670657058        4.8274641421        8.1462107255
 H        -0.4985501518        3.5064329716        8.7057379625
 H         1.8498349990        1.5651290544        8.1085465975
 H         2.8620303011        2.4970842255        7.3066793364
 H         2.1099943006        3.2395962679        8.5990104749
 H         1.5180754699        7.2428623536        4.2892232466
 H         2.8160804856        6.0601996508        4.4651494535
 H         1.0228260533        3.5576793000       -0.7371407231
 H        -0.0482390834        4.7812009062       -0.2635942598
 H        -0.1044193921        6.6733978903        1.1765812433
 H         1.2060153831        7.7619799263        0.7259083281
 H         0.6367655052        7.7376857696        2.3878908386
 H         3.5428438699        6.6030127873        0.9403094920
 H         3.4227880904        7.1902125207        2.5975248217
 H         3.9322631502        5.4886303008        2.2645131461
 H         2.4114232305        5.4440163245       -2.0893395864
 H         1.2128012145        6.4957023599       -1.5331655767
 H         1.7927502919        2.4401980440       -4.0031233603
 H         0.1975830806        2.7475276916       -4.4219615926
 H        -0.4791480252        5.7034832701       -6.0611241752
 H        -1.2273539661        6.4236115090       -4.7747045198
 H        -1.2851154166        4.7171002527       -4.7647610012
 H         2.6327779200        6.4280743224       -3.8778776501
 H         1.9384113656        6.9955025968       -5.2090919889
 H         1.2593055480        7.4281504718       -3.5781325193
 H         0.6989988934        2.1152962664       -6.8596324403
 H         2.5294148729        2.2001959582       -6.3753825888
 H         1.0886206578       -2.4986300370       -4.5125684308
 H         0.1636288862       -2.9747186285       -5.9231357831
 H        -0.0281273197        0.2476163314       -8.1872054593
 H        -0.6599825423        0.0077850843       -6.5202537252
 H        -0.2511977055       -1.4952059012       -7.6708195040
 H         3.4801533106       -0.2139339775       -7.7763055353
 H         2.2133613906       -0.5805515459       -8.8389321344
 H         2.4002325028        1.0608709066       -8.0699034698
 H         2.5019643794       -4.5927129285       -5.0632292343
 H         1.7376976968       -4.7399183916       -6.6650362285
 H        -2.5516108077       -4.2525938421       -3.6168178230
 H        -2.1767724952       -5.9458488081       -4.3463024162
 H         0.5291569086       -7.7241575144       -2.6900629310
 H         0.8139534221       -7.7421574390       -4.4476716613
 H        -0.8765206439       -7.5246373280       -3.8506972134
 H         1.5767191426       -5.6323869908       -1.8951865839
 H         2.4416667875       -6.1295095123       -3.3380066257
 H         2.1430555521       -4.4176692214       -3.0358022739
 H        -2.8969638227       -6.9642033505       -2.0748019605
 H        -2.8711302535       -5.4942402559       -1.2876562522
 H        -6.1623062377       -8.3339703110        0.5336640822
 H        -5.6099819704       -9.1698202527       -0.8672342061
 H        -4.6045086166       -7.8192110845       -0.2307771602
 H        -6.9980105530       -5.8219953058       -3.7458771949
 H        -6.7795153359       -7.4449293726       -4.4978851206
 H        -5.6327421740       -6.1410260572       -4.7053247498
 H        -5.4139616444       -9.1367505314       -3.4467092913
 H        -4.0820136586       -8.2630612772       -4.0646081002
 H        -4.2038328787       -8.6968550189       -2.2650805003
 Na        1.1782166375        2.1711554387        2.9921969034
