155

 C         0.5949056791       -2.4611663115        2.4392927839
 C         0.4544257985       -0.9339968068        2.2132647006
 C        -0.2111235835       -0.2119486855        0.9707917294
 C        -1.3969882480        0.6780531717        1.5634884431
 C        -2.8097967572        0.1150330830        1.5035270337
 C         0.9811700101        0.6514077605        0.4136397696
 C        -0.7101987117       -1.2967480212       -0.0542782029
 O         0.9031891220       -0.1821437020        3.0529632477
 O        -1.1301728338        1.7014625802        2.1243786731
 C        -3.5475136316        0.5144099513        2.7858527305
 C        -3.0699704171       -0.3517529416        3.9963599437
 C        -3.8972614620       -0.1389383342        5.3084898805
 C        -3.0694990116        0.6040080899        6.4178968328
 C        -1.7452555332        0.1457264197        6.9784196587
 O        -2.1940336876       -1.1521506299        3.8618822461
 O        -3.4182327485        1.7663282209        6.7870825158
 C        -5.1967502857        0.7012833513        4.9486245652
 C        -4.3990798497       -1.5529584837        5.7341740680
 C        -0.8916136802        1.2345218602        7.5732226431
 C         0.0087344268        1.8812234269        6.5352164723
 C         0.9523079975        3.1814141691        6.9439039159
 C         1.1207524240        4.1711418298        5.7489015259
 C         0.6783153914        5.6761181882        5.6757721224
 C         0.2195298774        3.9414998063        8.0495578691
 C         2.2515745023        2.6023004714        7.4467907511
 O         0.1165210098        1.4258472648        5.4493710053
 O         1.8469795020        3.7903977753        4.8763289846
 C         1.2086878331        6.3202910916        4.3417370211
 C         0.5199975935        5.7512605214        3.0531787346
 C         1.2484678479        5.9456290983        1.5851092230
 C         1.3585650957        4.5089066773        1.0082243478
 C         0.8331184465        4.1368271640       -0.3757447230
 O        -0.5802714457        5.2106436327        3.0556028848
 O         1.7575296044        3.5824538467        1.7722255235
 C         0.2431931934        6.8255890745        0.6141496287
 C         2.6499812024        6.6078056609        1.7895108754
 C         1.4831921759        4.7915638439       -1.5923750020
 C         0.4404776458        4.8951473854       -2.7771419813
 C         0.9156826448        5.5760576169       -4.1684650779
 C         1.5070677122        4.4445461783       -5.1265575271
 C         1.1646133641        2.9834493830       -5.0597775726
 C        -0.3180594110        6.1059854866       -4.9898633614
 C         1.9443279355        6.6976636474       -4.1431196341
 O        -0.6374153947        4.3765703186       -2.6391303953
 O         2.3285996101        4.8635686314       -5.9071015059
 C         1.9823262374        2.1629502564       -6.0963128161
 C         2.0297987060        0.6419950000       -5.6779534364
 C         2.0653944226       -0.5000073308       -6.7239378674
 C         2.4715884653       -1.9936595186       -5.9089571255
 C         1.3763275793       -2.7753630087       -5.0170901364
 O         1.9197695018        0.2980084396       -4.5181047045
 O         3.6253817558       -2.4261047103       -6.0003818314
 C         0.6225462053       -0.5986797877       -7.2838166326
 C         2.9966921201       -0.3091582977       -7.9407245945
 C         1.2273503664       -4.2443543387       -5.5578556453
 C         0.2204282717       -5.0028347873       -4.8244670990
 C         0.4248174487       -5.4281421213       -3.3152919801
 C        -0.8664150365       -4.9562549589       -2.4711931661
 C        -2.2293834491       -5.4479732914       -3.0175932585
 C         0.5343002767       -6.9526583723       -3.3838866355
 C         1.6631225611       -4.8358898837       -2.5592999608
 O        -0.8260951911       -5.2769679007       -5.3634698242
 O        -0.6871132726       -4.0435153591       -1.6921927471
 C        -3.4252021370       -5.7450059328       -2.0097325690
 C        -4.6978768766       -5.8759871349       -2.9405279385
 C        -5.3348892490       -7.1938167643       -3.3357138710
 C        -6.2198246528       -7.8242833835       -2.2324343159
 C        -5.6212355115       -8.7532423296       -1.1974988437
 O        -5.1739896594       -4.7956303475       -3.4056372961
 O        -7.4018292441       -7.8492772369       -2.2505304610
 C        -6.3127393314       -6.9623038524       -4.5366422130
 C        -4.1556769256       -8.1837676186       -3.7754960095
 H        -0.1538313495       -3.0230432361        1.9672984817
 H         1.5919706375       -2.8332894111        2.0831697830
 H         0.7600814242       -2.5759048241        3.5029269657
 H        -3.2553900745        0.5917150130        0.6518394498
 H        -2.8664419211       -0.9112507058        1.3484369331
 H         1.9303962826        0.1148781384        0.5092792352
 H         1.3099337675        1.4540197510        1.1572225629
 H         0.6385113298        0.9926515218       -0.5079232357
 H        -1.4221856609       -1.8907615249        0.4737422340
 H        -1.3224636047       -0.7631224745       -0.7638709591
 H         0.1647985019       -1.8743397965       -0.5455105060
 H        -3.2811530312        1.5172182332        3.0463608321
 H        -4.5925748384        0.4427614414        2.5112281128
 H        -1.9825707087       -0.6554198206        7.7205909023
 H        -1.1655997165       -0.2285977699        6.1356340068
 H        -5.1478465885        1.7581471177        4.8875735968
 H        -5.8707869932        0.6848506849        5.8157361162
 H        -5.8240277224        0.2075435003        4.1710699285
 H        -5.2141705784       -1.4433980387        6.3641878120
 H        -4.8942875428       -2.1968303969        4.9574269873
 H        -3.7339582559       -2.2254720133        6.3053867705
 H        -0.2450158712        0.9364821072        8.4832602877
 H        -1.5870602311        2.0613236993        7.9094236472
 H        -0.4302304758        5.7859143617        5.7591019926
 H         1.0275992373        6.2135041149        6.5541684033
 H        -0.7329845697        4.1303262885        7.7231868532
 H         0.7190514509        4.9621550250        8.2018528421
 H         0.2508801391        3.5464942699        9.0755718491
 H         2.0504876444        1.6151887893        7.9946138334
 H         3.0936900774        2.5594358845        6.7286471468
 H         2.6713973435        3.1645012472        8.3303941713
 H         0.9427579565        7.4207412097        4.2525272949
 H         2.2334611573        6.4498744509        4.2737482190
 H         0.8242732078        3.0693147249       -0.4199266036
 H        -0.2517714252        4.4471330640       -0.4073817946
 H        -0.5331437558        6.1891956599        0.2605260729
 H         0.8719283012        7.2445411323       -0.2064927004
 H        -0.2602068894        7.6824259032        1.1353413593
 H         3.1952539970        6.7047224875        0.8352489670
 H         2.5393876391        7.6385362504        2.1183651465
 H         3.2656722189        6.0238978777        2.4953090289
 H         2.2874917372        4.1484389617       -1.9879145687
 H         1.9061265449        5.7557906558       -1.3922077733
 H         1.5698366521        2.6547061678       -4.1240982480
 H         0.1213618566        2.7382737552       -5.1635509604
 H         0.0329325902        6.3021492945       -5.9915647919
 H        -0.7914763608        7.0237399034       -4.6117848609
 H        -1.0871280205        5.3686426355       -5.1519340133
 H         2.8924804879        6.2774164845       -3.7595229807
 H         2.0107385457        7.3040946743       -5.0475266664
 H         1.4856125956        7.5140957504       -3.5088836626
 H         1.3797224355        2.3600288251       -7.0784622812
 H         2.9919539905        2.5989023006       -6.1933779462
 H         1.7941875970       -2.7906907047       -3.9381918914
 H         0.4862439064       -2.2056424966       -5.0439064246
 H         0.5949736723       -0.0296178531       -8.2013837726
 H        -0.1528862184       -0.3591165047       -6.6364330708
 H         0.4455724768       -1.6280777573       -7.5959408306
 H         4.0295451086       -0.4731761161       -7.7228536705
 H         2.6158783686       -0.9603914147       -8.7578081809
 H         2.8540896127        0.6487698882       -8.4719471215
 H         2.1200001016       -4.8278021836       -5.5203564031
 H         0.9896690352       -4.1777083608       -6.5553863249
 H        -2.4539846877       -4.6412573809       -3.6910799710
 H        -1.9882345191       -6.3768364316       -3.6640945918
 H         1.0676101741       -7.3126423505       -2.5404140372
 H         1.0583471255       -7.2642092021       -4.2956325374
 H        -0.4508350066       -7.3108265400       -3.4147583861
 H         1.7520481658       -5.4524544877       -1.6308906551
 H         2.6098811850       -5.0354564109       -3.0785279478
 H         1.4849988526       -3.7316279616       -2.4582403145
 H        -3.1172318932       -6.6175730057       -1.5454091698
 H        -3.5380970590       -4.9416572163       -1.3433903527
 H        -6.4716031839       -9.1589669654       -0.5658254021
 H        -5.1347846860       -9.5972664482       -1.6229290338
 H        -4.9773020851       -8.2021117092       -0.5193918402
 H        -7.1565847895       -6.3843353136       -4.1419376033
 H        -6.6884512941       -7.9388091653       -4.8873164704
 H        -5.7324280534       -6.5290651563       -5.3732440338
 H        -4.4830903259       -9.2147723480       -3.6806075727
 H        -3.6483732603       -7.9181697644       -4.7546805519
 H        -3.3512190406       -8.1292653875       -3.0558561748
 Na        0.7222962501        2.0512724317        3.3004033390
