155

 C         1.2540037476       -1.2038734632        4.5348415364
 C         1.3319297727       -0.6078508251        3.1741369250
 C         0.3315028732       -1.2173753113        2.2241765591
 C        -1.1003541798       -0.5272321578        2.3776638051
 C        -2.3566333859       -1.3029385948        1.9098771464
 C         0.7777244257       -0.9047371949        0.7287249642
 C         0.0752020792       -2.7565001351        2.4140777644
 O         2.0297465983        0.3456845306        2.8703385781
 O        -1.1492633459        0.6170056114        2.7618165440
 C        -3.5507181704       -0.7256706658        2.7041145252
 C        -3.2698190420       -0.7099760566        4.1206572595
 C        -4.2788960986        0.2658832490        5.0938062710
 C        -3.5222132727        1.3699015046        5.8824485377
 C        -2.2478506915        0.9248969127        6.5989004705
 O        -2.6011506864       -1.5070359417        4.6829807517
 O        -3.9095879486        2.4644717428        6.0347964904
 C        -5.5761048603        0.7996382500        4.4061477757
 C        -4.7742130370       -0.7802755885        6.1652761988
 C        -1.2690148616        2.0822013207        6.8597452310
 C         0.0356519351        1.9425974843        6.1461476698
 C         1.2053360685        3.0110391502        6.6483204351
 C         1.1204699380        4.0241762050        5.5230252741
 C        -0.0128833533        5.0746985335        5.4789195218
 C         0.8643137659        3.7144082945        8.0223450142
 C         2.6173570539        2.1951183907        6.6128647455
 O         0.1893905461        1.3358493167        5.0993576667
 O         1.7965125226        3.8504056035        4.5306120482
 C         0.0497039685        5.8887449171        4.1791682877
 C        -0.6227537442        5.0245784926        2.9907430022
 C        -0.5473165532        5.6084122228        1.5443158883
 C        -0.2567092267        4.4804526046        0.4716658298
 C        -0.5716445517        4.8757979803       -0.9206465819
 O        -1.2586061197        4.0149132969        3.1677467947
 O         0.2390245790        3.4107273670        0.7433618323
 C        -1.9816406471        6.1727266031        1.3508264139
 C         0.4786281318        6.7929519669        1.3840842248
 C         0.5698842636        4.6794193831       -1.9597902420
 C         0.1864829250        5.2248361610       -3.3325232234
 C         1.3327219981        5.6937168258       -4.3113962787
 C         2.3557006765        4.4397156522       -4.3741279778
 C         2.1130063509        3.4609260650       -5.5652741276
 C         0.8385449782        6.0809245987       -5.6972109361
 C         2.1272822916        6.9794429789       -3.8116979593
 O        -0.9895461944        5.3368156998       -3.6984605286
 O         3.2357859084        4.2821190343       -3.5618688895
 C         3.1457252842        2.2991617462       -5.6694469710
 C         2.3794590403        0.9370392636       -5.8000492648
 C         3.2055056582       -0.3162494666       -6.3013939391
 C         2.8494643494       -1.3735251850       -5.2374874923
 C         1.4850695483       -2.0060495752       -5.3598023443
 O         1.2315813550        0.8585676073       -5.4771807091
 O         3.5756913745       -1.4941617860       -4.2713606684
 C         2.7115622523       -0.6793663361       -7.7512280493
 C         4.6776966639       -0.1411530286       -6.3491687319
 C         0.9143645829       -2.6130844961       -4.0823568726
 C         0.4611635565       -4.0248847079       -4.1819544321
 C         0.2379321580       -4.8004811866       -2.7859221811
 C        -1.2940043234       -4.5193240341       -2.2158656617
 C        -2.4770336684       -4.8193674706       -3.2078049839
 C         0.4602741954       -6.3091578321       -2.9123231920
 C         1.3043604108       -4.2311254394       -1.7414389799
 O         0.1177316070       -4.5521035415       -5.2152671977
 O        -1.4291598939       -3.9555693906       -1.1961245442
 C        -3.0007281245       -6.2711690638       -3.2570509681
 C        -4.2110863107       -6.3989447654       -4.2011927651
 C        -4.8568505616       -7.7640455340       -4.4525795323
 C        -5.6626289529       -8.2669906996       -3.0520587929
 C        -5.2432664654       -9.5557402582       -2.3823348881
 O        -4.5350333051       -5.3463498476       -4.7142907031
 O        -6.6325484271       -7.6683233456       -2.6864907886
 C        -5.9745120263       -7.5954744580       -5.6200663971
 C        -3.7437298628       -8.7908951096       -4.8328203400
 H         0.4117697123       -1.8406728521        4.5832978022
 H         2.1716532077       -1.7357958684        4.8988678689
 H         1.0191043427       -0.5171414888        5.2999906169
 H        -2.4865103220       -1.2947515682        0.8572058626
 H        -2.3258556767       -2.3280046235        2.2001643195
 H         1.6404000241       -1.5301288038        0.5662540756
 H         1.2698722582        0.0848309266        0.6067184391
 H        -0.0058279313       -0.9816017694        0.0485593642
 H        -0.3453498622       -2.9869664757        3.3735975314
 H        -0.4354198411       -3.3193708141        1.6304227453
 H         1.0486446916       -3.2610046856        2.4149772436
 H        -3.8432273316        0.3423844452        2.4085929023
 H        -4.5120898418       -1.2648188479        2.5384818476
 H        -2.5400151412        0.4905845277        7.5784370437
 H        -1.7764606820        0.0755328826        6.0571584914
 H        -5.2372719593        1.6566192855        3.9035941690
 H        -6.2747531704        1.1888315485        5.1255939848
 H        -6.0470318830       -0.0170551441        3.8533087539
 H        -5.7089781685       -0.4018577392        6.5708165469
 H        -5.0458985350       -1.7287282473        5.5644286916
 H        -3.9557075502       -0.9139929570        6.9389358224
 H        -1.1033021627        2.2269032091        8.0073247201
 H        -1.7610626171        2.9878744467        6.5026749564
 H        -0.9474560950        4.5536151043        5.5238231305
 H         0.0067502873        5.8597924560        6.2894517405
 H         0.2029100996        4.6247014002        7.8092017942
 H         1.7288129577        4.1954839164        8.5284014124
 H         0.5008261705        3.0206483399        8.7248434903
 H         2.8641302339        2.0491249143        5.6405868351
 H         3.4117443338        2.6848832142        7.1810993504
 H         2.4212357405        1.3158262292        7.1647967419
 H        -0.6071802972        6.7600243598        4.3898651735
 H         1.0530863592        6.1191125590        3.9410987831
 H        -1.4509190294        4.3241328089       -1.3024308594
 H        -0.8513348482        5.9232450365       -0.8591557885
 H        -2.6772409648        5.4808296180        1.7034504247
 H        -2.2426238316        6.4350626946        0.3286010229
 H        -2.0857880229        7.1330223267        1.8322251015
 H         0.4492806281        7.3934769973        0.4314495450
 H         0.4287967647        7.4677572560        2.2154325348
 H         1.4885396481        6.3559458204        1.4246588808
 H         0.7659021304        3.6018169454       -1.9977993911
 H         1.5124598907        5.1201424424       -1.5122760735
 H         1.1319899691        2.9469142376       -5.5057423418
 H         2.1070596390        3.9851791281       -6.5631435551
 H         1.7762892480        6.2898833663       -6.1647398999
 H         0.2089727966        6.9728498288       -5.7506669920
 H         0.4668541024        5.2242954544       -6.1824661946
 H         3.0547572741        6.8062004303       -3.3383619835
 H         2.4478133090        7.4504794580       -4.6822624961
 H         1.4790783126        7.7603367044       -3.4537981084
 H         3.7137093742        2.5085894732       -6.6767884214
 H         3.7896793984        2.2654880869       -4.7567132936
 H         0.8878652452       -1.1812138107       -5.8708792794
 H         1.7803410372       -2.7565410855       -6.2078084794
 H         2.8263671130       -0.0418786808       -8.6631765301
 H         1.6158992402       -0.8781037050       -7.7170309357
 H         3.2090995705       -1.5959808444       -8.1523320049
 H         4.9489458570        0.2632058192       -5.3605220698
 H         5.1970893492       -1.0422881439       -6.6430204726
 H         4.8349546594        0.5405145471       -7.1740123219
 H        -0.0663363349       -2.0346056044       -3.9135698294
 H         1.5086697039       -2.4142601511       -3.2356213480
 H        -3.2803926276       -4.1267413368       -2.9009923067
 H        -1.9906950522       -4.4346183850       -4.2158500986
 H         0.2103862778       -6.8468282754       -2.0055945529
 H         1.5283559002       -6.5465923873       -3.1908997894
 H        -0.1036489053       -6.7070157664       -3.7360839218
 H         1.3430286826       -4.8736691292       -0.8378902116
 H         2.3445616774       -4.3037777542       -2.0717449864
 H         1.1585833380       -3.2069035762       -1.3721998967
 H        -2.3403267892       -7.1236178993       -3.5430579046
 H        -3.3709735750       -6.3847979675       -2.1852499203
 H        -5.9560361223       -9.7508259969       -1.5410265127
 H        -5.5810490113      -10.2341460790       -3.1214739501
 H        -4.2193574860       -9.6169529469       -2.0215687902
 H        -6.5441408587       -6.6687211271       -5.3917312026
 H        -6.7492667542       -8.3866715370       -5.6675302735
 H        -5.4365046926       -7.5489020526       -6.6206225699
 H        -4.1667821284       -9.6975127529       -5.1275005693
 H        -2.9510773153       -8.3498332452       -5.4538316785
 H        -3.1422790593       -9.0775034939       -3.9762276128
 Na        0.5274059363        2.3259519444        2.8940806994
