155

 C         2.4554005444       -1.2893693806        2.1989394283
 C         1.1027371996       -0.5902387973        2.4967182563
 C        -0.1507028034       -1.2655539828        1.7831339902
 C        -1.4849500728       -0.8251116796        2.5604135086
 C        -2.4762948597       -1.8677882241        3.1397354498
 C        -0.0987969601       -0.7054753669        0.2459853081
 C        -0.0405574422       -2.8133710378        1.9385982517
 O         1.0667139576        0.4390619358        3.1296051870
 O        -1.7053882593        0.3314698566        2.4974997212
 C        -3.5613518387       -1.0449002805        3.9767942194
 C        -3.2881182269       -1.1889289506        5.4872520547
 C        -4.3113408679       -0.2632044505        6.4295404090
 C        -3.7860130670        1.1887012090        6.3798962815
 C        -2.6992713413        1.5037617797        7.3289324763
 O        -2.3571143709       -1.7997015872        5.9738516122
 O        -4.2773233884        2.0396802228        5.6474428357
 C        -5.7806931603       -0.3464965215        5.9834659150
 C        -4.0998149888       -0.7525510563        7.9384505841
 C        -2.1322159547        2.9715106917        7.2245204090
 C        -1.2748162340        3.2301592163        5.9211992463
 C        -0.5557418780        4.5328424462        5.7139994359
 C        -1.0264756672        5.0365906325        4.3392535753
 C        -2.4317995949        5.6089831906        4.2053056976
 C        -0.8941872153        5.5873273962        6.7743342514
 C         1.0168508599        4.1923431115        5.7819026548
 O        -1.3521360409        2.3070143217        5.1406565890
 O        -0.4019913818        4.7966851312        3.2605340156
 C        -2.7090183667        5.6827769966        2.6889354455
 C        -2.5100993875        4.2774613219        1.9501623705
 C        -2.1653435929        4.1632663625        0.4486506272
 C        -0.7437015133        3.6061542286        0.0979789824
 C        -0.3112270010        3.8948050344       -1.3520100778
 O        -2.8221390085        3.3013768850        2.5455127871
 O        -0.1002226451        2.8354209578        0.8154264112
 C        -3.1430925274        3.0021125298       -0.1742817942
 C        -2.5248079601        5.5036317900       -0.2411229026
 C         0.6145412875        5.0794750019       -1.4751804282
 C         0.6858797961        5.7068251518       -2.8963423577
 C         2.2792795591        6.2147965604       -3.2426414397
 C         3.2997154840        5.0267145435       -3.0853047878
 C         3.1416308683        3.7187093259       -3.9978098000
 C         2.5098013802        6.7571520431       -4.5855177671
 C         2.5385945918        7.3076926760       -2.1916548138
 O        -0.2803329409        5.7407812503       -3.6367454335
 O         4.1102308142        5.1792677671       -2.2008894226
 C         3.8832857603        2.5431608233       -3.3736413778
 C         4.0540457304        1.2679023854       -4.2881335700
 C         4.3416297459       -0.2118114002       -3.4738777191
 C         2.8530199432       -0.6782971667       -3.2889999896
 C         2.2235974246       -1.4567104919       -4.4985513689
 O         3.8523440643        1.2022346452       -5.4415285754
 O         2.3082271283       -0.5164566803       -2.2221501345
 C         5.1977139554       -1.1081008056       -4.4913137029
 C         4.9578679269       -0.1802436456       -1.9677272906
 C         1.3224747521       -2.7392684758       -4.3683106318
 C         2.0865087537       -4.0049352995       -4.7378889825
 C         1.3289305386       -5.3371450541       -4.4377512115
 C        -0.2345886268       -5.1042688958       -4.0658772399
 C        -1.3202165141       -5.1904660313       -5.0989285755
 C         1.4935203271       -6.4479740976       -5.5210227574
 C         1.9180215741       -6.0031699570       -3.1100709208
 O         3.2254845019       -3.9385241512       -5.2529471452
 O        -0.5116934199       -4.8883775643       -2.8488455209
 C        -2.1137200206       -6.5538326654       -4.9584272105
 C        -3.6252769902       -6.4470183935       -5.2567343888
 C        -4.4130581231       -7.8404249748       -5.3180359161
 C        -4.5001606779       -8.4056625221       -3.8493108601
 C        -5.4833344993       -7.5774871209       -2.9862300324
 O        -4.2311253502       -5.3864127424       -5.3645101459
 O        -3.8080660689       -9.3603101417       -3.5097120002
 C        -5.8001483483       -7.6077752450       -5.9935201599
 C        -3.6304913377       -8.9097186377       -6.2536504212
 H         2.6213102530       -2.1257621673        2.8928473030
 H         2.5179692319       -1.6056586461        1.0821761029
 H         3.3628222100       -0.6414392370        2.3297059030
 H        -2.9782014274       -2.3402409820        2.3387773072
 H        -2.0551017444       -2.6979923146        3.7122715834
 H         0.7311017558       -1.0872209911       -0.3362119101
 H         0.1798036393        0.3993063238        0.1970590888
 H        -1.0211257525       -0.9325499860       -0.1760450360
 H        -0.0494768125       -3.1525227874        2.9439285647
 H        -0.7654651103       -3.2921846730        1.3570866430
 H         0.9971154553       -3.1513441317        1.5962042817
 H        -3.5827700977        0.0797320711        3.8184646321
 H        -4.6342282959       -1.3273636532        3.7765796591
 H        -3.0633548343        1.3240606671        8.3697241328
 H        -1.8364299938        0.8720730380        7.0943423323
 H        -5.9568284013        0.3337230257        5.1392622079
 H        -6.4767241825       -0.0604517958        6.7533321588
 H        -6.1412193802       -1.3455152986        5.9049826402
 H        -4.6555823167       -0.2482556908        8.6608952210
 H        -4.4362825348       -1.7259937284        8.0475637897
 H        -3.1121743311       -0.6727886406        8.3084573601
 H        -1.5485271915        3.3137000072        8.1548678209
 H        -2.9947435345        3.5855513273        7.1199974486
 H        -3.1653021836        4.9312910344        4.6593113867
 H        -2.6050149003        6.5917682849        4.7063921758
 H        -1.9196055091        5.5293495467        7.1052213674
 H        -0.6502702870        6.5800335394        6.3454201515
 H        -0.3103644365        5.3546812126        7.5601938524
 H         1.4175499285        4.2066381245        6.8151197404
 H         1.1291857656        3.1594156837        5.3745767024
 H         1.6113554585        4.9400278278        5.1661562999
 H        -3.7479423647        6.0233733822        2.3386992272
 H        -2.0990281829        6.4189122861        2.2435524772
 H         0.1145414229        2.9890097725       -1.8199693733
 H        -1.2470619790        4.0805617218       -1.8620414823
 H        -2.5227771817        2.1150916825       -0.0397869100
 H        -3.2463629530        3.0909352077       -1.2231544532
 H        -4.1419289714        2.8842308047        0.1806877390
 H        -2.6586398918        5.3653952489       -1.3009433490
 H        -3.4669411453        5.9981162305        0.1268296469
 H        -1.7756123157        6.2739381889       -0.1430006859
 H         1.5801631257        4.7759233831       -1.1745541558
 H         0.3856870941        5.9687064982       -0.9114478536
 H         2.1261649595        3.3869544962       -4.2178003295
 H         3.5726469498        4.0293941191       -4.9505011619
 H         3.4670913926        7.3196681936       -4.5802518753
 H         1.7648912243        7.4828272647       -4.9427720585
 H         2.7488103417        6.0672574668       -5.4461448698
 H         2.4864831041        6.9277951152       -1.1156455896
 H         3.5198741691        7.8423831994       -2.3341433688
 H         1.9425128510        8.1710078218       -2.4222656882
 H         4.9669190998        2.8326934547       -3.1466273334
 H         3.4111152693        2.2839504018       -2.4892794152
 H         1.5635144049       -0.6109856541       -4.8861863070
 H         2.9740918868       -1.6285522629       -5.3239127173
 H         6.2277070119       -0.8463987396       -4.3537784998
 H         5.0158094431       -1.0004260375       -5.5447665101
 H         5.1722615377       -2.1335766051       -4.1183454657
 H         4.4391130294        0.5921279637       -1.4536161856
 H         4.6332265692       -1.0736806409       -1.4263408136
 H         6.0346124022       -0.0421900972       -1.7720834309
 H         0.4290277448       -2.5490115945       -5.0514046531
 H         0.8763375955       -2.8475188353       -3.3957581249
 H        -2.1200561520       -4.4356188022       -4.8198804818
 H        -1.0444622454       -4.9303865747       -6.1246030041
 H         0.8539679629       -7.3041196498       -5.1576433269
 H         2.5181876080       -6.7785649131       -5.5226367238
 H         1.2204806677       -6.1349597087       -6.5477502177
 H         1.2417310114       -6.7841337846       -2.9326428123
 H         2.9156595314       -6.2876981557       -3.2801442371
 H         1.8660457048       -5.3917269859       -2.2467261550
 H        -1.5505061442       -7.3211216915       -5.4431159706
 H        -2.0699561943       -6.8584411432       -3.8117750622
 H        -6.3162583258       -7.1975291916       -3.5490080455
 H        -5.8430857611       -8.2846401372       -2.2125126617
 H        -4.9731990286       -6.8416165829       -2.3450155519
 H        -6.4721280481       -6.9372763052       -5.4316380675
 H        -6.3825316358       -8.5334873308       -6.2040249927
 H        -5.5811233848       -7.1773864093       -6.9315862303
 H        -4.2984098861       -9.8300034318       -6.3434751634
 H        -3.5664224137       -8.5520816089       -7.2916902464
 H        -2.5681883065       -9.1615041841       -6.0622067459
 Na       -0.6339942275        2.2152489525        3.1241503752
