155

 C         1.2240274592       -0.9906017465        2.6631166618
 C         0.1003416643       -0.1558248720        2.0958982094
 C        -1.2102074050       -0.8954358222        1.7080927771
 C        -2.2171591225       -0.6049819610        2.9459513650
 C        -3.0827336761       -1.6509481258        3.6681859204
 C        -1.8221295358       -0.0698507298        0.4679828528
 C        -1.0491546323       -2.4160676996        1.5302466362
 O         0.2260695805        1.0676263108        2.0737263083
 O        -2.5705103620        0.5193045896        3.2211305303
 C        -3.5518930879       -1.1073668542        5.1134873845
 C        -2.4513055289       -1.4974497863        6.1845983439
 C        -2.4225652417       -0.9207187149        7.6041298138
 C        -2.8982883789        0.6308025486        7.6189249335
 C        -1.8576564870        1.6227962252        7.0371511054
 O        -1.6617621068       -2.3038371689        5.7452826287
 O        -4.0128318564        0.8975337110        7.9787215514
 C        -3.4715544758       -1.7501000065        8.4859611685
 C        -1.0311935510       -1.3315566336        8.0989829086
 C        -2.5983003621        2.9500941483        6.7427577608
 C        -2.4886541437        3.4402838569        5.2141336723
 C        -3.5117974432        4.5439997377        4.7172449586
 C        -3.4305984151        4.8068857332        3.1540832926
 C        -4.6474667733        5.2081852890        2.3743366809
 C        -4.9150463002        4.1696056117        5.1526317183
 C        -2.9402294145        5.9037417166        5.2622632114
 O        -1.5792154589        2.9304337247        4.6011346870
 O        -2.3243681618        4.9806839087        2.5567267772
 C        -4.4114388242        5.3167890709        0.9083288113
 C        -3.7607359457        4.1119274342        0.2873730915
 C        -3.0155117409        4.2186892400       -1.0399217619
 C        -1.3795988703        3.9928272043       -0.7438413058
 C        -0.4735401160        4.0344774442       -1.8656086258
 O        -3.8956609622        2.9724819286        0.7157025269
 O        -1.0199830884        3.7321549033        0.4170310328
 C        -3.5798306746        3.1458962213       -2.0027711621
 C        -3.1484648936        5.6434747153       -1.6660097489
 C         0.7574810224        5.0307474740       -1.4948228984
 C         1.5185496840        5.3216668800       -2.7947414716
 C         3.1012889959        5.6253075107       -2.7070339036
 C         3.8481736165        4.2370489267       -2.2123070174
 C         3.8998316320        3.0903311172       -3.2468981185
 C         3.6325784921        6.0700121146       -4.1068510528
 C         3.3880794423        6.6655134597       -1.5578480149
 O         0.9342171539        5.4246371039       -3.8738353347
 O         4.2711047905        4.2848831620       -1.0705984661
 C         4.6731378921        1.8992112681       -2.8443478500
 C         3.7832779637        0.7829815075       -2.1376188606
 C         4.5980608245       -0.3285800845       -1.3569823857
 C         3.9560472645       -1.7401642969       -1.6196988023
 C         3.7897871167       -2.1346221648       -3.0624339811
 O         2.5736231919        0.7458430217       -2.1866721645
 O         3.7372306007       -2.5412248958       -0.7189552194
 C         6.1083841079       -0.5120098148       -1.7397996563
 C         4.5881189987        0.0189589990        0.1302561991
 C         2.7678508735       -3.1559955509       -3.4182123643
 C         2.8167077905       -3.4245924357       -4.9169701533
 C         2.0316556452       -4.7358708173       -5.4438547419
 C         1.1510617690       -5.2612997048       -4.2743485232
 C        -0.4205618942       -4.9475868706       -4.2911260037
 C         1.1606176002       -4.3440645661       -6.7281057561
 C         3.1834536201       -5.8658936076       -5.7849254387
 O         3.3597772326       -2.6504561197       -5.7147765064
 O         1.6576738879       -5.8072695448       -3.3187833589
 C        -1.0561523391       -6.2155622239       -4.7263670585
 C        -2.3666312746       -6.0021257830       -5.4610020222
 C        -3.2553393136       -7.2576229646       -5.9004810562
 C        -4.1709645498       -7.4319895853       -4.5983192816
 C        -4.9454407324       -8.6719772004       -4.4681771504
 O        -2.6324029847       -4.8271531447       -5.8086965376
 O        -4.2734915715       -6.5326864512       -3.7796383882
 C        -4.0751973903       -6.9330952253       -7.2265168917
 C        -2.4360893194       -8.5135557143       -6.1311292718
 H         0.8502700945       -1.5509284917        3.5509628759
 H         1.7880020576       -1.7105857881        2.0601736414
 H         1.8763171872       -0.2752198255        2.9954319390
 H        -3.8649050917       -2.0273782594        3.0231257827
 H        -2.5966816002       -2.6835882170        3.8834489592
 H        -1.2870308433       -0.4714753353       -0.4059173707
 H        -1.6711388673        0.9681867309        0.5337686834
 H        -2.8724066585       -0.2618622423        0.2617307502
 H        -0.9340804213       -2.8749034386        2.5626777025
 H        -2.0238660000       -2.8623182063        1.2400685813
 H        -0.2425282743       -2.7059150970        0.9626672110
 H        -3.7915910462       -0.0803244719        5.0884273055
 H        -4.5178910659       -1.6400568732        5.2166337423
 H        -1.0641984486        1.6700079714        7.7787356576
 H        -1.5662479978        1.1640256327        6.1275051246
 H        -4.3433150724       -1.9329637928        7.9940341016
 H        -3.7197733318       -1.0596914585        9.2532838051
 H        -3.0942252632       -2.7378372015        8.6521465333
 H        -1.1122821039       -1.2769273424        9.1720382914
 H        -0.8167568723       -2.3470248501        7.8338365968
 H        -0.3039002790       -0.7705538854        7.6474383931
 H        -2.0754457112        3.6355275569        7.4119380931
 H        -3.6618084181        2.8926695678        6.8939023991
 H        -5.3635957121        4.4489417168        2.7211092300
 H        -4.9750275905        6.0753914611        2.8370290775
 H        -5.4552666871        3.3869787117        4.5563160560
 H        -5.6798230951        5.0472278809        5.0967072785
 H        -4.9999580147        3.7229232348        6.0971863298
 H        -2.2425807718        6.3495840797        4.5946781261
 H        -3.7651710797        6.7101585822        5.3811253698
 H        -2.5867404145        5.7089341513        6.2946603262
 H        -5.3346347627        5.4392635626        0.2861336870
 H        -3.8026649537        6.1027719447        0.6210732131
 H        -0.0563127900        3.0460996820       -2.0757346267
 H        -0.8938865079        4.4222903849       -2.8043081242
 H        -4.3117085950        3.5800773339       -2.6713483277
 H        -4.0466161919        2.3695805414       -1.3840083706
 H        -2.8251126373        2.8181127972       -2.6552175622
 H        -2.7800070695        5.7063222280       -2.6405031955
 H        -4.1828483398        5.9982964726       -1.4978464900
 H        -2.5605740568        6.2770637007       -1.0095431113
 H         1.4466147134        4.6236247891       -0.7191670297
 H         0.2218902365        5.9381488599       -1.0504017904
 H         2.8673474525        2.9079896202       -3.5746597260
 H         4.4964039794        3.5796662651       -4.0948399642
 H         2.8832319305        5.6754753161       -4.8328647496
 H         4.6466914500        5.6231602859       -4.2236257871
 H         3.6279751351        7.1822058498       -4.1512706637
 H         3.4771202017        6.2346272474       -0.5338203102
 H         4.4017686271        7.0392730772       -1.7955652771
 H         2.4748324888        7.3634195566       -1.5928857939
 H         4.9655787095        1.5002845375       -3.8950638944
 H         5.5692264672        2.2211907163       -2.3063876530
 H         3.6025968184       -1.2170149327       -3.5271829629
 H         4.7759046568       -2.4042856910       -3.4593333443
 H         6.7349337429        0.1814203882       -1.2024171297
 H         6.1942391500       -0.3872877656       -2.8359782112
 H         6.4972453494       -1.5397688993       -1.5342396787
 H         3.6510312968        0.2574841997        0.5515910017
 H         5.0367259051       -0.7805163652        0.6763503775
 H         5.2476984704        0.8233888215        0.3050296269
 H         1.7513661782       -2.8640468384       -3.1435184083
 H         2.9429664269       -4.0760744379       -2.8610718075
 H        -0.8125221546       -4.5473188968       -3.4400241878
 H        -0.5763871105       -4.2029968115       -4.9984478493
 H         0.4642211497       -5.1749245871       -6.9398809307
 H         1.7489110023       -4.0671874873       -7.5385146113
 H         0.4464148719       -3.5220488315       -6.6239245753
 H         2.6721130782       -6.7586037592       -6.1916440982
 H         3.7161559240       -5.5062993348       -6.6424821115
 H         3.8374847286       -6.2154619085       -4.9698059699
 H        -0.4510911802       -6.7938962672       -5.4818875982
 H        -1.2410914115       -6.9418080586       -3.8968925112
 H        -4.3777440645       -9.5993597407       -4.1497808160
 H        -5.7712904904       -8.5373943366       -3.7553843727
 H        -5.4829868254       -8.9084308856       -5.3936652324
 H        -4.6906500428       -6.0226513199       -7.1663522965
 H        -4.6390966667       -7.8648520341       -7.4689828607
 H        -3.3495840652       -6.7908676697       -8.0399093768
 H        -2.8818133522       -9.4419672248       -6.5745370949
 H        -1.5378385560       -8.3027533696       -6.6503886335
 H        -2.2162845732       -8.9080259133       -5.1033167672
 Na       -1.8396908164        2.5308160660        2.2893129144
