155

 C        -0.3127186945        5.9680944925        2.2253838141
 C        -0.5001906541        4.5102912222        2.8003839461
 C        -0.6329682346        4.0369407416        4.2492671280
 C        -2.2455293522        3.6324831008        4.3565007266
 C        -3.1330720507        4.3820443838        5.4037316357
 C         0.2421898171        2.8337793727        4.4685635570
 C        -0.2477608572        5.0687197554        5.3843702177
 O        -0.3426423627        3.6050090770        1.9858981091
 O        -2.8301909717        2.7913858253        3.7545262131
 C        -4.5528585462        4.5936194067        4.7416967569
 C        -4.5454976256        5.8078600436        3.8339206367
 C        -5.9878916439        6.1745179084        3.1830734338
 C        -5.9978800464        5.2875471092        1.6830859476
 C        -4.9825915767        5.7173165015        0.6894859445
 O        -3.6023916323        6.5483989804        3.5941601518
 O        -6.7652097987        4.3620966858        1.6083096736
 C        -7.1670095890        5.7701812846        4.0253029110
 C        -6.0018822414        7.6862902488        2.8852015493
 C        -5.0092927792        4.7572067877       -0.4627778893
 C        -4.1427176871        3.4834110728       -0.2031689305
 C        -4.0640377440        2.2909355022       -1.3081222879
 C        -3.1716735801        1.1619786124       -0.7609299071
 C        -3.7016401076       -0.3048827467       -0.8669560284
 C        -5.4443604010        1.8539980930       -1.8285266652
 C        -3.2124328240        2.8213176772       -2.4593333481
 O        -3.4246252026        3.4722093145        0.7661365068
 O        -2.0455826230        1.4664530443       -0.3527170877
 C        -2.7491629344       -1.3851587183       -0.2522555796
 C        -2.3244172087       -0.9269123995        1.1592593799
 C        -1.1063777254       -1.4737017195        1.8751863015
 C         0.1226107340       -0.6290534599        1.4767681773
 C         1.2307198895       -1.4062639499        0.7360067660
 O        -3.0516497174       -0.1976516523        1.8073400809
 O         0.2063427710        0.5631153937        1.7482052580
 C        -1.3003551262       -1.2413117635        3.3956452568
 C        -1.0730616650       -3.0527265337        1.6669711399
 C         2.6867264572       -1.3286056760        1.3459913032
 C         2.8696031730       -2.0684117107        2.6307904788
 C         4.3234478603       -2.2047984247        3.2130272090
 C         4.9718644426       -3.3192178307        2.2263062662
 C         4.6424587135       -4.6582223821        2.6367645480
 C         5.2518798386       -1.0603292220        3.1332168739
 C         4.2734060591       -2.6413485447        4.6568651708
 O         1.9301932437       -2.5791888297        3.1757817370
 O         5.5623007543       -2.9185682631        1.2596330477
 C         4.8071909526       -5.8588906641        1.7069881589
 C         3.6498062688       -5.7800609414        0.6272162780
 C         3.9227336690       -6.3220994964       -0.8978282661
 C         3.1580081222       -5.3092012743       -1.7552844964
 C         1.6441427059       -5.2240682180       -1.6319077424
 O         2.5821356586       -5.2800537690        0.8993002798
 O         3.8004254502       -4.5369603731       -2.5048067273
 C         5.4041683073       -6.2963728290       -1.2547213322
 C         3.4046607256       -7.7963250328       -1.0532458854
 C         1.0220284569       -5.3825070213       -3.0651839983
 C        -0.1589999771       -4.4152503705       -3.3483930354
 C        -0.8778282800       -4.3097049088       -4.6968779656
 C        -0.0441429945       -3.2565940390       -5.5833782018
 C        -0.0388413185       -1.8436621860       -4.9604702791
 C        -0.7055610602       -5.7120195147       -5.5016926036
 C        -2.4308635882       -4.0887265521       -4.5175286653
 O        -0.6303554770       -3.6720365463       -2.5008000749
 O         0.5517789111       -3.5253475321       -6.5685121090
 C         0.5535491177       -0.8474838139       -5.8751554309
 C         0.1222075175        0.5729341598       -5.5711683886
 C         0.8036742215        1.6952550863       -6.4161746500
 C        -0.0617992953        3.0374883800       -6.3777028284
 C        -1.4788282041        2.8346634012       -6.8570159962
 O        -0.6775389514        0.8951447106       -4.7800568708
 O         0.4534924579        4.0910552216       -6.2243988927
 C         2.1249393435        1.9565955458       -5.6831790823
 C         0.9880174991        1.3325431555       -7.8459988520
 H         0.1505951491        6.6619259287        3.0018417679
 H         0.2823991909        5.8173686912        1.2564641336
 H        -1.3326519975        6.3961840612        1.9796496750
 H        -3.2821249187        3.8737402222        6.3914706282
 H        -2.7366080628        5.3035181301        5.7087201327
 H         1.1783343061        3.0522375992        3.8529091330
 H        -0.2152644479        1.9509590563        4.0827155742
 H         0.5278289110        2.6007272362        5.4853026075
 H        -0.6492231500        6.0107957197        5.1526854738
 H        -0.5443538970        4.6815580802        6.3614104301
 H         0.8512981760        5.2480399838        5.4124590168
 H        -4.6526815113        3.7209131787        4.0064357731
 H        -5.2572942014        4.7103059379        5.5318530037
 H        -5.2700127028        6.7291630597        0.4202921418
 H        -3.9685970550        5.7619190493        1.1459700486
 H        -7.9322626161        6.5907871313        4.1038894616
 H        -6.9980441661        5.5172336359        5.0326387238
 H        -7.6172360001        4.8971750796        3.5022308082
 H        -6.5440018145        8.1004419512        3.7044633314
 H        -5.0370229116        8.1028094864        2.9666315800
 H        -6.4224479341        8.0828751978        1.9537348344
 H        -4.6354445080        5.2189877588       -1.3749383848
 H        -6.0691925364        4.5180137381       -0.6489991476
 H        -4.6464063173       -0.3329147772       -0.3580383050
 H        -4.0031657314       -0.4716761743       -1.9506573843
 H        -5.9669735648        1.3278679332       -1.0442213853
 H        -5.3046477296        1.1657155809       -2.6562658293
 H        -5.9494968294        2.7687269797       -2.2118398660
 H        -3.7982362208        3.6461660178       -2.9311387734
 H        -2.1305471927        3.0462734571       -2.0415175458
 H        -3.0714955749        2.0530803303       -3.1748505437
 H        -3.4450017916       -2.2217586507       -0.1152308241
 H        -1.9094611027       -1.5012472219       -0.9099659688
 H         0.9594456684       -2.4748274698        0.5862151109
 H         1.4320757527       -0.9072105319       -0.2094915293
 H        -2.3684070894       -1.4622950010        3.6230538382
 H        -1.3574308627       -0.2421263329        3.7920761580
 H        -0.4967092647       -1.9360857505        3.8246564124
 H        -0.5061657006       -3.6894246941        2.2985879299
 H        -2.0314840134       -3.5033961086        1.8264368690
 H        -0.9377681224       -3.4190261592        0.6969099623
 H         3.2130326019       -0.4513619248        1.1139657403
 H         3.2177543485       -1.9290957674        0.6827360817
 H         5.2145553429       -4.8196937268        3.6073917255
 H         3.6084275287       -4.6926035680        2.9630273405
 H         5.9567320547       -0.9952509365        3.9086482057
 H         4.6534083142       -0.1633353470        3.2232480214
 H         5.7574953491       -1.0388198051        2.1716936517
 H         3.4666781923       -3.3161976530        4.9616632426
 H         5.2622803606       -2.8562513458        4.9868323790
 H         4.0945660870       -1.6787998713        5.2921562151
 H         5.8265033742       -6.0027699652        1.3540400557
 H         4.4701984515       -6.7358100541        2.1199703728
 H         1.2637401871       -5.9311906988       -0.9148867579
 H         1.2876681928       -4.2365381815       -1.2663274234
 H         5.7193675219       -5.3261475834       -1.4319018318
 H         5.6702540327       -6.9427468397       -2.1080341950
 H         5.9282868767       -6.6741183993       -0.3697881264
 H         3.4900325550       -8.4367181716       -0.1582333092
 H         2.3309385190       -7.8866461474       -1.1878837456
 H         3.9036253466       -8.3480103290       -1.8162298396
 H         0.5525666502       -6.3980975113       -3.0262942689
 H         1.7504866122       -5.4028216765       -3.8944313043
 H        -0.9167772532       -1.5591702288       -4.4623750386
 H         0.6650075795       -1.9311826046       -4.1109354886
 H         0.0439470085       -6.3786815789       -5.0536603591
 H        -0.3256569127       -5.5082180814       -6.4679180292
 H        -1.5357731116       -6.4052714367       -5.6210171032
 H        -2.6410170510       -4.4836848197       -3.4997309329
 H        -2.5965369723       -3.0009624641       -4.4238426842
 H        -3.0539683344       -4.4173035351       -5.3393714456
 H         1.6006051284       -0.9668604164       -5.7294995195
 H         0.3255375957       -1.0871503845       -6.9341503655
 H        -2.0510989198        3.7035771323       -6.5728558264
 H        -1.4794094727        2.6690358081       -7.9217878120
 H        -2.0304695806        2.0208344844       -6.4953043285
 H         2.8315602057        1.2235205186       -5.9678759571
 H         1.9045695810        1.9201962139       -4.6035547814
 H         2.4358338999        2.9441812612       -5.9822122240
 H         1.5163558597        0.3955576938       -8.0440056996
 H        -0.0628669711        1.2742155724       -8.2749242753
 H         1.4966181289        2.0848693946       -8.5042538033
 Na       -1.7718314112        1.8852634349        1.9221683647
