155

 C        -0.4189657722        5.9393309657        2.5394860224
 C        -0.4906820364        4.4395778160        2.6474118371
 C        -0.7179228008        3.9189399112        4.1473638835
 C        -2.2721245303        3.6215759507        4.3467775455
 C        -3.1964701751        4.4566229691        5.2954808920
 C         0.0081378514        2.5565152109        4.3403302527
 C        -0.2824600867        4.9451337962        5.2495636449
 O        -0.3556050755        3.6523589127        1.7274848519
 O        -2.7219361503        2.5816502561        3.8071338652
 C        -4.6793767664        4.6544900203        4.7479708022
 C        -4.7147404140        5.9754760360        3.7813800844
 C        -6.0291854454        6.2870770798        3.1147847081
 C        -6.0611818509        5.3666911762        1.8164398434
 C        -5.1443579202        5.7245708509        0.5439621923
 O        -3.6421507729        6.5434174250        3.6191209932
 O        -6.5768825166        4.2871091185        1.9495976818
 C        -7.3052060984        5.9830301962        3.9134304755
 C        -6.0140123985        7.7753546898        2.7347567658
 C        -5.1455374331        4.4780792907       -0.4382477326
 C        -4.0515040395        3.4336746809       -0.1833193120
 C        -3.8135512983        2.3709490750       -1.3172712074
 C        -3.0380462010        1.0793179953       -0.8796580468
 C        -3.6700645892       -0.3662326508       -0.9712768442
 C        -5.2025658065        2.0244067675       -1.9103473029
 C        -2.9767402771        3.1681423987       -2.4548893715
 O        -3.4206541342        3.3955337184        0.8537082090
 O        -1.8785358565        1.1867734282       -0.5490125050
 C        -2.6289743470       -1.3217156160       -0.3051141473
 C        -2.4751876373       -0.9720786146        1.1955825448
 C        -1.2624201352       -1.6981351704        2.0098132498
 C         0.0366479748       -0.8524643972        1.5400063505
 C         1.2394892427       -1.4313437336        0.7670650461
 O        -3.1633916743       -0.0972840248        1.6790727690
 O         0.2084631781        0.2965441947        1.8526676047
 C        -1.5135002119       -1.4388509541        3.5374238459
 C        -1.0435147455       -3.0879086182        1.6723870562
 C         2.6286193793       -1.1038776514        1.4015234121
 C         2.8896021325       -1.8339569504        2.6848490977
 C         4.3106478165       -2.1982110505        3.1933357640
 C         4.8505341662       -3.3630149809        2.4053175404
 C         4.7273750235       -4.8368083976        2.9304981683
 C         4.9885200652       -0.7884585812        2.9856822610
 C         4.2741822749       -2.5272323060        4.7191549279
 O         1.9581803044       -2.4102066053        3.2211572844
 O         5.1793822224       -3.2705279615        1.2562272163
 C         4.8982324420       -5.8294373884        1.7784623553
 C         3.7162497096       -5.7090509102        0.6343122841
 C         3.9653106495       -6.2755572066       -0.7975111356
 C         3.2216185351       -5.2632332076       -1.6481434102
 C         1.6995289982       -5.3333141717       -1.7798539194
 O         2.6359710011       -5.2534515716        0.9346977783
 O         3.7968090294       -4.4990124639       -2.3126634689
 C         5.4666634759       -6.3624874909       -1.1372996835
 C         3.3456224386       -7.6862325097       -0.8827138593
 C         1.2482872190       -5.4657971690       -3.2432477347
 C        -0.0183870970       -4.6336328710       -3.4285682095
 C        -0.6314838174       -4.5395056797       -4.7843349155
 C         0.0811167296       -3.2277363805       -5.4612060351
 C         0.1295802772       -1.8419301088       -4.7831759399
 C        -0.3727713545       -5.6993669237       -5.7604045629
 C        -2.1593162030       -4.2391268677       -4.8129840856
 O        -0.5054398938       -3.9848695031       -2.5076646648
 O         0.3183007697       -3.2772824385       -6.6826666575
 C         0.5538971062       -0.7396335595       -5.8688719948
 C         0.1970728128        0.6866631126       -5.5504554236
 C         0.8180187906        1.8610421265       -6.3554157953
 C        -0.1869455197        3.1207595862       -6.4488757428
 C        -1.6751773648        2.9098752450       -6.7140156873
 O        -0.7103892369        0.8652815841       -4.7059725473
 O         0.2366621604        4.2130886251       -6.1104142210
 C         2.1129698802        2.2869587641       -5.7206700974
 C         1.1734518035        1.4658124683       -7.8050871917
 H         0.1128402895        6.2454001579        3.3658287467
 H         0.1413658528        6.1792538734        1.6808967682
 H        -1.3396851481        6.4131278170        2.5463429121
 H        -3.1985629297        3.9013630269        6.2475826585
 H        -2.7822912646        5.4808767504        5.6473787476
 H         1.0643843314        2.5091499370        4.1425694843
 H        -0.4959046521        1.8353611281        3.6047321508
 H        -0.2652755145        2.1214019427        5.3308114856
 H        -0.9288072615        5.8843956592        5.1444445061
 H        -0.4327998437        4.4997849751        6.2465258894
 H         0.7602474059        5.2501467404        5.2329053260
 H        -4.9342584870        3.8194625591        4.1721697136
 H        -5.1711215823        4.8233249397        5.7147399101
 H        -5.4567226652        6.6639813624        0.0708157873
 H        -4.1328024845        5.9202503377        0.8296839516
 H        -8.2194971768        6.1517861017        3.3625255319
 H        -7.4973286851        6.7376503676        4.7663992778
 H        -7.2243042794        4.9630917144        4.2741459352
 H        -5.6128049213        8.4765475006        3.4917681026
 H        -5.3948665026        8.0005007380        1.7774927393
 H        -7.0212777337        8.0100333824        2.3637517503
 H        -5.1973623309        4.7761763100       -1.4941374008
 H        -6.0382263465        3.8813309680       -0.2686391745
 H        -4.6898220571       -0.4677779878       -0.4765290383
 H        -3.8655585999       -0.5532469637       -2.0116915575
 H        -5.8281999896        1.7714740211       -1.0940607028
 H        -5.1138231425        1.2142815791       -2.5871542324
 H        -5.5294306587        2.8419327915       -2.4604828227
 H        -3.5925423721        4.0018838378       -2.7906418848
 H        -2.0921214212        3.4384691808       -2.0229633646
 H        -2.7286872770        2.4807847652       -3.3430353278
 H        -2.9908295189       -2.3307416407       -0.3950748613
 H        -1.6746453086       -1.0538367308       -0.7771340750
 H         1.1594023992       -2.5207073733        0.5755853044
 H         1.1797716673       -0.8252145431       -0.1924914627
 H        -2.5243266139       -1.6768952644        3.9165223824
 H        -1.6441684812       -0.3058440364        3.5416386255
 H        -0.6692996196       -1.7120340092        4.1360104906
 H        -0.0270149492       -3.4122542558        1.9694775304
 H        -1.6195881954       -3.9011261921        2.0632050671
 H        -1.0780251305       -3.3681796268        0.6150243904
 H         2.5708607738        0.0037382320        1.6788368831
 H         3.4677834289       -1.0227947190        0.6234358188
 H         5.2433222095       -5.1591706774        3.7880684412
 H         3.6740512517       -4.9684063058        3.2622401271
 H         6.0415876010       -0.8237679201        3.3154998847
 H         4.4570290230        0.0427885983        3.5805823061
 H         4.9951229187       -0.4902052670        1.9232777491
 H         3.3625854942       -3.1280549469        4.9040034611
 H         5.2268572436       -3.0056566733        5.0879910612
 H         4.0986296246       -1.6903939076        5.3028070810
 H         5.8796980717       -5.6915309049        1.3172538485
 H         4.7925394810       -6.9535169949        2.0725433519
 H         1.2100944571       -6.0810945371       -1.1135520724
 H         1.3522548297       -4.3590391895       -1.4365091436
 H         5.9147243322       -5.3328568874       -0.8845737462
 H         5.6023245162       -6.5075099275       -2.1853800650
 H         5.9087370415       -7.1521305099       -0.5743182582
 H         3.6250769589       -8.2512226288       -0.0141662930
 H         2.2737435634       -7.7619448088       -0.8526210548
 H         3.7732485879       -8.2527026926       -1.7056773352
 H         1.2338514507       -6.5049773864       -3.5321692064
 H         2.0205289541       -5.0186930286       -3.8820172760
 H        -0.9486185082       -1.6870214176       -4.4194416835
 H         0.6379420764       -1.9117475267       -3.8158304941
 H         0.6342086326       -6.1499135251       -5.7395847350
 H        -0.5812020910       -5.4777051496       -6.8383345677
 H        -1.0804181155       -6.5417824315       -5.4974146316
 H        -2.6737030523       -5.0412960082       -4.3156099125
 H        -2.4126758606       -3.4202908644       -4.1827910355
 H        -2.4494761098       -4.0105678510       -5.8047297467
 H         1.6571407484       -0.7779457822       -6.0682669183
 H        -0.0332664481       -1.0831801338       -6.7160928523
 H        -2.1821565938        3.8524849017       -6.7043141211
 H        -1.9496495789        2.2326507258       -7.5105126159
 H        -2.1152174558        2.3898020100       -5.8480718264
 H         2.8053914517        1.4037304811       -5.7221157052
 H         1.9984331558        2.5546139254       -4.6233132230
 H         2.4794416039        3.0101100631       -6.4231825997
 H         2.0871440703        0.8682101070       -7.7904624280
 H         0.4814350923        1.0256660160       -8.4893427783
 H         1.4706611380        2.3981261737       -8.2904651156
 Na       -1.8615066606        1.9168378394        1.8119877397
