155

 C         0.0424957145        5.9992862869        3.0961770983
 C        -0.4795026512        4.6049423253        3.2766124990
 C        -0.9208762212        4.0546922481        4.6727279232
 C        -2.3980799414        3.5456091066        4.5272327179
 C        -3.5234825891        4.3179931104        5.2919263388
 C        -0.2492847842        2.7889390560        5.0074596118
 C        -0.7415154129        5.0442963795        5.7636999945
 O        -0.7418000314        4.0208100522        2.2432362708
 O        -2.7572129010        2.5575350173        3.8957720662
 C        -4.7025924188        4.5063014949        4.3660136187
 C        -4.4559963593        5.6668566609        3.3500980130
 C        -5.7280634189        6.0993295818        2.4404422949
 C        -5.8980062499        4.7429320281        1.5105136318
 C        -5.8559071966        4.8868145757       -0.0710695528
 O        -3.3263610340        6.0764399608        3.1330139136
 O        -6.2227134683        3.7154667458        2.0046793586
 C        -6.8900628693        6.3253996681        3.3132937030
 C        -5.2511986751        7.3805899076        1.5928175500
 C        -5.7161261723        3.4712810775       -0.6756889983
 C        -4.2595963876        2.9281255833       -0.3789523938
 C        -3.2327874870        2.3848814309       -1.5028217476
 C        -2.6535135051        0.9855372383       -1.2127876681
 C        -3.4211744621       -0.2581039425       -1.7481777929
 C        -3.9057373963        2.4150457096       -2.8984665975
 C        -2.0553188193        3.4085883386       -1.4910617467
 O        -3.9044125571        2.8658398518        0.7636601738
 O        -1.5766547077        0.8722111384       -0.5852105878
 C        -3.1041476595       -1.4937203414       -0.9638192382
 C        -2.9310604670       -1.1218439692        0.5268537739
 C        -1.8801691077       -1.9078888451        1.4183940468
 C        -0.4919969737       -1.1215133675        1.5328303596
 C         0.8408144123       -1.9333204201        1.1937542542
 O        -3.5762725865       -0.1926377309        0.9948095643
 O        -0.3471558854        0.0651471102        1.8424281176
 C        -2.4352095790       -2.0745769588        2.8092653946
 C        -1.5667312907       -3.3273199657        0.7554232256
 C         2.0822167721       -1.1809089794        1.5916095561
 C         2.4122372156       -1.2812849464        3.1178178282
 C         3.9333063312       -1.7286158873        3.3876007369
 C         4.4250362971       -2.9579699883        2.4963054810
 C         3.7025419881       -4.2027366965        2.7812832358
 C         4.9238233950       -0.5276331246        3.0796602020
 C         3.9811214303       -2.0954758435        4.8980634660
 O         1.6486570589       -1.0181013105        4.0157650082
 O         5.2647505788       -2.7950491349        1.6340426971
 C         4.1680554951       -5.4842643323        2.0102870697
 C         3.5034801103       -5.8272011318        0.7028085057
 C         4.2239505856       -6.5561517841       -0.5049611403
 C         4.0070177011       -5.4703999493       -1.7541727182
 C         2.5913527146       -5.4733059170       -2.3731060225
 O         2.4141062714       -5.3431956460        0.4753359350
 O         4.8981748987       -4.6686409065       -2.0607208779
 C         5.7627011379       -6.8810800993       -0.3081180564
 C         3.3555648789       -7.8386141570       -0.7675431704
 C         2.3179075656       -4.1509104063       -3.1292067298
 C         0.8966353528       -4.2577305380       -3.5356051605
 C         0.4714515708       -4.3633824272       -5.1580093323
 C         0.8485309647       -3.0117381902       -5.8540805806
 C         0.3377328031       -1.7132062093       -5.1324609241
 C         1.1872579168       -5.4745530196       -5.8353147488
 C        -1.0768691798       -4.6389772520       -5.3181386402
 O        -0.0155624727       -4.1513825415       -2.7178897587
 O         1.5066673758       -2.9272993345       -6.8607252102
 C         0.6303333207       -0.4054142240       -5.7527048543
 C        -0.0677617042        0.7658080724       -5.1238863388
 C         0.2723541697        2.2865880230       -5.6416573475
 C        -1.1127465596        3.0700468428       -5.6161277701
 C        -2.1211422089        2.9471091671       -6.7799885993
 O        -0.9260337027        0.6026926970       -4.3065046343
 O        -1.3605584400        3.9142673005       -4.7173272025
 C         1.2554917958        2.8302193836       -4.5567532721
 C         1.0678513569        2.2023785707       -6.9485209786
 H         0.6123651239        6.0392379457        2.1299956855
 H        -0.8148355855        6.6650609215        3.0981202771
 H         0.7445848671        6.3599619085        3.9706904226
 H        -3.7516297581        3.6185071979        6.1150397688
 H        -3.0988279199        5.2380610995        5.6853798402
 H         0.7583972431        3.0712139162        5.3431677910
 H        -0.1834460730        2.0819840790        4.2357545736
 H        -0.7116516154        2.2977005393        5.8180870647
 H        -1.1056853987        6.0275313761        5.4956983375
 H        -1.0337416030        4.7289624454        6.7519948021
 H         0.3545125792        5.2343104520        5.8634081162
 H        -4.8810459362        3.5082229867        3.8924643621
 H        -5.6936374226        4.6402316822        4.8401479541
 H        -6.9037809471        5.2568208792       -0.3112040848
 H        -5.0971718880        5.6355723067       -0.3195176059
 H        -7.3735176505        5.4565112879        3.7917642323
 H        -7.4857612058        6.8226846242        2.6071664025
 H        -6.7895120939        7.1037510728        4.0184553254
 H        -5.6470123503        8.3219477548        2.0167786702
 H        -4.2422649975        7.4054432312        1.5441677078
 H        -5.6423337734        7.3997634019        0.5895050991
 H        -6.0477205153        3.4225636434       -1.7442016477
 H        -6.4142073506        2.8150262756       -0.1155506095
 H        -4.4975788694       -0.0921777828       -1.6221386343
 H        -3.2383568501       -0.4511776070       -2.7830123642
 H        -4.7191674414        1.6898230406       -2.9980984432
 H        -3.1556521730        2.0951314730       -3.6272766441
 H        -4.1381301997        3.4443937858       -3.2318588012
 H        -2.5744484110        4.3304714400       -1.7201111087
 H        -1.6079703731        3.3232092603       -0.4735454146
 H        -1.3199580743        3.1665708893       -2.2190392686
 H        -3.7803037501       -2.3314420822       -1.0292902918
 H        -2.2035248479       -1.9906673329       -1.3213011813
 H         0.6944230750       -2.8264385224        1.7389571009
 H         0.7226432660       -2.2160291843        0.1400595674
 H        -3.3538055223       -2.6634323579        2.8226972126
 H        -2.5751283000       -1.1207432958        3.2418212576
 H        -1.6109321992       -2.6559601224        3.2051377005
 H        -1.1367073616       -4.1050174259        1.4406980579
 H        -2.4482298942       -3.7252777347        0.2559486242
 H        -0.9038583109       -3.3262097280       -0.0971801339
 H         1.9858445711       -0.1819572721        1.2708481599
 H         2.9116526786       -1.6236351085        1.1111569064
 H         3.7069879355       -4.3770956722        3.8705913570
 H         2.6572917113       -3.9090224003        2.4304784561
 H         5.9606079815       -0.6687975866        3.3461898756
 H         4.6091747838        0.2922765056        3.6108302048
 H         4.8801519072       -0.4306519771        2.0020140348
 H         3.0372048179       -2.5209764815        5.1435914489
 H         4.7524946925       -2.7757759090        5.2566019618
 H         4.0412569798       -1.1973075187        5.5726419448
 H         5.2507182829       -5.5829856462        1.9701109669
 H         3.8453103510       -6.2232156000        2.6640967934
 H         2.3240013688       -6.3250497781       -3.0323816790
 H         1.8918200930       -5.5494115129       -1.6068591614
 H         6.3548767140       -6.1809313950       -0.8471503282
 H         5.8922498685       -7.9449711478       -0.6830001859
 H         6.0438815120       -6.9240056749        0.7786296619
 H         3.7340963688       -8.6272176956       -0.0606028065
 H         2.3201116683       -7.6248118126       -0.4995508973
 H         3.5085904260       -8.1630997536       -1.7767290032
 H         2.9687566660       -3.9844627584       -4.0248244853
 H         2.3731790416       -3.3142457881       -2.4466323544
 H        -0.7263121963       -1.8299030479       -4.9025627521
 H         0.8115784125       -1.7046027643       -4.1525751728
 H         0.6576465781       -6.4207210781       -5.7734821497
 H         2.2043637695       -5.5181058514       -5.5255971637
 H         1.1364794317       -5.3332241107       -6.8832102862
 H        -1.6748695552       -4.5222260993       -4.3819680251
 H        -1.5880943411       -4.1522899776       -6.1534856444
 H        -1.1858313007       -5.6989109535       -5.5117592830
 H         1.7400585632       -0.2574778224       -5.7406727090
 H         0.6296498710       -0.5685460112       -6.7971881639
 H        -1.6270797035        3.3544220082       -7.7068953826
 H        -2.3945560848        1.9058266054       -7.1237602477
 H        -3.0503311957        3.4801771099       -6.5689948604
 H         2.0639425854        2.0934258756       -4.5624755577
 H         0.7700604461        2.9352057132       -3.6420648913
 H         1.7670158104        3.8251573262       -4.7493293402
 H         2.0217771903        1.8521705170       -6.7691276182
 H         0.6018529599        1.6741229689       -7.7885087852
 H         1.3124873929        3.1897705887       -7.3278559771
 Na       -2.1623151821        1.7094221403        1.6941263273
