155

 C        -0.0066413251        5.4718464616        2.7732869139
 C        -0.7447329083        4.1267920510        3.0785570795
 C        -1.0865596266        3.8251918713        4.6018686429
 C        -2.5886375705        3.2884826093        4.5670243883
 C        -3.7251074835        4.0651639052        5.2706175667
 C        -0.3796125273        2.6629458088        5.1995686644
 C        -0.8725464397        5.1152337904        5.3979928822
 O        -0.8084410531        3.2920364647        2.2068119342
 O        -2.8550850922        2.1963856390        4.0869125966
 C        -4.9493579936        4.2268706827        4.3755337539
 C        -4.5310038181        5.0816864844        3.2519879214
 C        -5.5626628997        5.8683837906        2.2557017441
 C        -6.0805807246        4.7524799662        1.2849929235
 C        -5.7858914539        4.7445316324       -0.3220424897
 O        -3.3234981497        5.1422737120        3.0276469113
 O        -6.9258361780        3.9770597315        1.6639784786
 C        -6.7701588035        6.4223407018        2.9531320347
 C        -4.7713250219        6.9585230696        1.5796719806
 C        -5.6070621591        3.3531485519       -0.9214206589
 C        -4.2718122573        2.8512357857       -0.5107386155
 C        -3.1647029587        2.6057250372       -1.6484519707
 C        -2.3623997685        1.2107786672       -1.3589876228
 C        -3.1664695949       -0.0293739906       -1.7157844396
 C        -3.7863591913        2.4827642232       -3.0603294416
 C        -2.2665887068        3.8167276429       -1.4977283169
 O        -3.9774189760        2.7966984536        0.6927853439
 O        -1.2868446177        1.1636639900       -0.8132542594
 C        -2.7410769025       -1.3419860034       -0.9869124915
 C        -2.8373137386       -1.0555704894        0.4958028779
 C        -1.9407892519       -2.0642835779        1.3743915717
 C        -0.6307317267       -1.2976341480        1.5735268156
 C         0.7302697503       -1.9313333125        1.2027151149
 O        -3.5121652718       -0.2446401508        1.1267575807
 O        -0.6180336432       -0.1856308051        2.0753135973
 C        -2.6659205303       -2.2612706922        2.7786663977
 C        -1.7637093831       -3.4011758491        0.6477584378
 C         2.0062363804       -1.1423802504        1.6541154636
 C         2.2538766027       -1.3462414954        3.1514570656
 C         3.7606607341       -1.4168942609        3.5793142513
 C         4.3528540555       -2.6264845860        2.8337988037
 C         3.4178570476       -3.9919924170        2.6514751887
 C         4.3936860487        0.0112578654        3.1272460936
 C         3.9386318053       -1.5892116657        5.1605073303
 O         1.3772659432       -1.5255515245        3.9428746864
 O         5.3888164908       -2.5923389655        2.2552043550
 C         4.2026976963       -5.0917499522        1.8424009622
 C         3.4504884281       -5.5906615001        0.6397225687
 C         4.1087983329       -6.6591858785       -0.3517427190
 C         4.2690387615       -5.8283947902       -1.7226863739
 C         2.9807046996       -5.6741313428       -2.5285531350
 O         2.3123743018       -5.1712651866        0.3978267535
 O         5.3169669731       -5.1935564758       -1.9788959144
 C         5.5432146786       -6.9931573835        0.1338735183
 C         3.1211871342       -7.8208106895       -0.6114149080
 C         2.6725656360       -4.2367155948       -3.0035591659
 C         1.2617063933       -4.0449153062       -3.5723959590
 C         1.0314929498       -4.1901982053       -5.0366166768
 C         1.3568780819       -2.6932640126       -5.5814051875
 C         0.2262461201       -1.7597675271       -5.2449088804
 C         1.9394828933       -5.1166783980       -5.8364101654
 C        -0.4520189854       -4.5483087542       -5.2815220021
 O         0.3964344509       -3.6718368345       -2.8329927323
 O         2.3047963115       -2.3548178975       -6.2187955827
 C         0.5007069112       -0.2949587750       -5.7604224455
 C        -0.4042628886        0.9052889637       -5.2996979963
 C         0.0577745058        2.3775624816       -5.3047280939
 C        -1.1896376120        3.3177708642       -5.5431817863
 C        -1.9486619389        3.2605234556       -6.9286845831
 O        -1.4976871339        0.5969635390       -4.7882009816
 O        -1.4501806667        4.1532302345       -4.7151860206
 C         0.6473022092        2.7174960989       -3.9525133680
 C         1.0366453651        2.6557693605       -6.5188789957
 H         0.0972820650        5.6250943324        1.6573123147
 H        -0.5313363365        6.3251334847        3.2267451886
 H         1.0674281085        5.3754444593        3.1788992044
 H        -3.9809755175        3.4233677729        6.1362224005
 H        -3.1905920446        4.9923260777        5.6990813441
 H         0.6551689369        2.8124731870        5.0759957507
 H        -0.6823363292        1.7891194879        4.6856944062
 H        -0.6484658567        2.4470904080        6.2195168599
 H        -1.5834960149        5.9278954159        5.1099812319
 H        -1.0351437637        4.8784495896        6.4616258988
 H         0.1193738173        5.4572870827        5.2906226319
 H        -5.3603978231        3.3346140737        3.9991909069
 H        -5.9093776076        4.5884962040        4.7599029621
 H        -6.6988193279        5.2270721349       -0.6192841068
 H        -4.9387536005        5.4070903635       -0.5627880764
 H        -7.2665175157        5.5728364520        3.3771990077
 H        -7.5496207170        6.6449983206        2.1863967199
 H        -6.5515053171        7.1451939338        3.6810099524
 H        -4.7735962993        7.8496125788        2.0990263918
 H        -3.7372012363        6.7137284660        1.4923733283
 H        -5.1402827498        7.0258077118        0.5496743452
 H        -5.5997353643        3.3918793848       -2.0074888878
 H        -6.4116841334        2.6793930505       -0.5614311981
 H        -4.2244305236        0.1777874339       -1.3991447015
 H        -3.1693079572       -0.2253881482       -2.8104494636
 H        -4.7395506343        1.9005074205       -3.1426651651
 H        -3.0029421379        2.1016336521       -3.7607996263
 H        -4.1206742046        3.4428966471       -3.4947844870
 H        -2.8712174551        4.7627881722       -1.5677948409
 H        -1.6977780537        3.5781888018       -0.4879036729
 H        -1.6020108723        3.8034986785       -2.3038880517
 H        -3.3172947298       -2.2667715812       -1.1673749177
 H        -1.7014879594       -1.5837054907       -1.2103372787
 H         0.5783584619       -2.9763870410        1.5864526410
 H         0.8055147749       -2.1019720016        0.1404853435
 H        -3.6295095535       -2.6022388322        2.4545374561
 H        -2.9148685350       -1.2634338438        3.0882187960
 H        -1.9359542640       -2.7832274190        3.4839222024
 H        -1.5689362540       -4.0868620567        1.4953067255
 H        -2.6627768529       -3.7853752956        0.2488662953
 H        -0.9498401724       -3.4074035663       -0.0439624851
 H         1.8637828225       -0.0939714042        1.6267891206
 H         2.7788522075       -1.3328705858        0.9112558912
 H         3.3566491273       -4.3660066639        3.7112421520
 H         2.5055001319       -3.7533024905        2.1212873376
 H         5.4180747036       -0.1327590440        2.9985256902
 H         4.1281763281        0.7779080200        3.9037242112
 H         3.9701345001        0.4155530520        2.2136111557
 H         3.3691822383       -2.3973591608        5.6836470168
 H         5.0393592157       -1.7624838994        5.3497541390
 H         3.6628850780       -0.7297356009        5.6833733252
 H         5.1764174235       -4.6667269326        1.6185009755
 H         4.4638366089       -5.9582992910        2.5741075515
 H         3.1601509719       -6.4050660038       -3.3013954355
 H         2.1398359731       -6.1455445494       -1.9452381314
 H         6.3080579799       -6.3572060254       -0.4448438172
 H         5.8480534056       -7.9981419643       -0.1394609310
 H         5.6867986876       -6.8360607126        1.2032102327
 H         3.4142888361       -8.7397801540       -0.1436600265
 H         2.1218008445       -7.4512793284       -0.3326729823
 H         3.1900166907       -7.9588658188       -1.7262508597
 H         3.4782291698       -3.9047726135       -3.6428243770
 H         2.7910223751       -3.6375774070       -2.0515465679
 H        -0.7446308048       -2.0979170964       -5.6055736264
 H        -0.0446696469       -1.7858912316       -4.1832113180
 H         1.8247053441       -6.1486862131       -5.5807888856
 H         2.8764214618       -4.8191808984       -5.4848576444
 H         1.9728832143       -4.7898227179       -6.9369892632
 H        -0.7832307973       -4.3985666795       -6.3663084566
 H        -0.5673146194       -5.6362507034       -5.0799372466
 H        -1.1314191282       -4.0943032765       -4.5606286510
 H         1.5249665284       -0.0682240145       -5.5977004814
 H         0.4767842200       -0.2410960226       -6.8770400624
 H        -2.0584447446        4.2565038723       -7.3953208973
 H        -1.4090147624        2.6294407233       -7.6789613903
 H        -2.9181962502        2.7250256120       -6.9441583174
 H         1.2766055495        1.9432730979       -3.6402662017
 H        -0.0981550796        2.7471137894       -3.1647389547
 H         1.2395416519        3.5823729239       -4.0211021233
 H         1.9953393100        2.1836276930       -6.4594737123
 H         0.6463777077        2.2573068552       -7.4486425869
 H         1.0719950205        3.7537502590       -6.6626786652
 Na       -2.1340446938        1.6582837585        1.5343392325
