155

 C        -0.8158535887        4.9654480256        2.9475781551
 C        -1.1261283890        3.4771996813        2.9827936592
 C        -1.6327501280        2.7966171807        4.3199249258
 C        -3.2322691827        2.6342452598        3.9846416344
 C        -4.2777751951        3.3341003018        4.8718857253
 C        -1.1792471987        1.3357917334        4.4773990083
 C        -1.3478543630        3.5505344789        5.6526551714
 O        -0.9465266880        2.8088392074        1.9977308403
 O        -3.5691681024        1.9217285037        3.0851792060
 C        -5.4824421101        3.7936639763        4.0676158669
 C        -4.9344048739        4.9739108736        3.1854878750
 C        -5.9013940368        5.6455524161        2.1693277330
 C        -6.4297492452        4.4103696469        1.2147102068
 C        -6.3228308768        4.6569016305       -0.3021242023
 O        -3.8560480826        5.4157552198        3.3254269939
 O        -6.9518999474        3.4211165326        1.7279616838
 C        -7.1223307523        6.2109774012        2.9274015766
 C        -5.2353969121        6.8779263365        1.5259450478
 C        -6.0911472157        3.3282659370       -1.1171343816
 C        -4.6169550814        2.7835484749       -0.8727190322
 C        -3.6346649509        2.7564478466       -2.2165624539
 C        -2.9708219936        1.3153940452       -2.0366806811
 C        -3.5245551786        0.0105541483       -2.6487362003
 C        -4.3458126698        2.8274306274       -3.5829868462
 C        -2.5676340640        3.8382629803       -1.9574305442
 O        -4.2518125486        2.4711583594        0.2111996849
 O        -2.1141932641        1.2791009663       -1.1625519691
 C        -2.8918526224       -1.2866133507       -2.0595550862
 C        -3.0317723990       -1.5575389079       -0.5838396429
 C        -2.0151227872       -2.6477349426        0.1064279603
 C        -0.8664946809       -1.8360344398        0.8205740480
 C         0.5820280744       -2.2550120798        0.8574799377
 O        -3.7488370027       -0.9204081487        0.1725543260
 O        -1.2593144064       -0.9032172333        1.5142134399
 C        -2.9548455133       -3.4983775403        1.1318858596
 C        -1.3180905084       -3.5861781880       -0.8529772518
 C         1.6174588699       -1.3655149670        1.7487558195
 C         1.9786625079       -2.0204602308        3.0544897585
 C         3.4170640658       -1.8302348974        3.8176879197
 C         4.6464058744       -2.4462007732        2.8635293689
 C         5.5951020941       -3.5891607693        3.4367808075
 C         3.6854620794       -0.2885288297        4.0326991849
 C         3.4303489582       -2.5535175140        5.1476444453
 O         1.1019322013       -2.6988558164        3.5771158157
 O         4.9781431867       -2.0754086209        1.7615892335
 C         5.5120012574       -4.8615512239        2.4997774246
 C         4.1272091861       -5.0946638296        1.9112255459
 C         4.0339182177       -6.1677453414        0.8272004106
 C         4.3571774517       -5.3722510210       -0.3828815847
 C         3.2474864855       -4.3656356532       -1.0006724476
 O         3.1780258721       -4.3917786103        2.2441462570
 O         5.3964791952       -5.4975036322       -1.0335308735
 C         4.9833825455       -7.3198981393        0.8541450391
 C         2.5676068247       -6.6822998364        0.8997263013
 C         3.3328851810       -4.2499056010       -2.5018715466
 C         2.1872530515       -3.3389305690       -3.0084106600
 C         1.9869660389       -3.0099028270       -4.5609010404
 C         2.3925269641       -1.5232673008       -4.7927510867
 C         1.9053129716       -0.4783125392       -3.7612938295
 C         2.7577786917       -3.9792746263       -5.5287377546
 C         0.4998561064       -3.1679804164       -4.9696912255
 O         1.3700311893       -2.9508104199       -2.2117034043
 O         2.9644701504       -1.2021921033       -5.8041844546
 C         1.8765893202        0.9894373562       -4.5338448357
 C         0.5701519019        1.5564438338       -4.8706988158
 C         0.5378807792        3.1489808734       -5.4797749009
 C        -0.9179460327        3.2773575828       -5.9797004820
 C        -1.3456044097        3.2717604683       -7.4423252751
 O        -0.5117298258        1.0430774039       -4.5114976315
 O        -1.8178430136        3.3688035498       -5.1057798731
 C         0.8295951195        4.2363214850       -4.3546758105
 C         1.5751384276        3.2904502307       -6.7553308987
 H        -0.8215350164        5.3687260209        1.9506884652
 H        -1.4461103996        5.4854662050        3.5644630375
 H         0.2673511468        5.0454153046        3.3662431902
 H        -4.4654867787        2.4662111832        5.5879850741
 H        -3.9145301845        4.1145234497        5.4624570322
 H        -0.1575944901        1.2742415936        4.8200152836
 H        -1.3724749343        0.7326368307        3.5788219886
 H        -1.7611010838        0.8544310710        5.2876755296
 H        -1.3622567475        4.6197181484        5.6667751511
 H        -1.9146001589        3.2298105496        6.5336573719
 H        -0.2458888929        3.2791201743        5.8583536292
 H        -5.6831430179        2.9213975417        3.4322250935
 H        -6.2271155687        4.0798684805        4.8889106332
 H        -7.2983996008        5.0078572063       -0.5942393485
 H        -5.5542413981        5.3557558486       -0.5599398299
 H        -7.5415408263        5.4022859882        3.4591716475
 H        -7.9659719202        6.5861810522        2.4341597979
 H        -6.7786390139        7.0580913544        3.6035344340
 H        -5.2010440846        7.7116313320        2.1611654388
 H        -4.2395348676        6.5265390452        1.2102983568
 H        -5.8309753828        7.1540257913        0.6732312373
 H        -6.2698064463        3.4798229395       -2.1882049305
 H        -6.7889071615        2.5965261737       -0.7156909298
 H        -4.6268967967       -0.2450338422       -2.6258859601
 H        -3.3078864304        0.0292811951       -3.7043822839
 H        -5.2683998678        2.2374885847       -3.4796595750
 H        -3.7694892650        2.3908843240       -4.3859775120
 H        -4.5759145893        3.8329326782       -3.9854483493
 H        -3.0104248914        4.7837740584       -1.5813845132
 H        -1.7804789184        3.3137179789       -1.2652459254
 H        -2.0182142889        3.9419666020       -2.8615316240
 H        -3.0874091319       -2.1416467875       -2.7211584580
 H        -1.7932398920       -1.2382534964       -2.2786241307
 H         0.5641374331       -3.2595855121        1.2926876876
 H         1.2115684127       -2.3785054245       -0.0257042862
 H        -3.6920011003       -3.8779362141        0.3676014913
 H        -3.4507901961       -2.9492575050        1.9879176814
 H        -2.2599248283       -4.3905140280        1.5431971568
 H        -0.4863071986       -4.1085786319       -0.5439785327
 H        -2.0409448432       -4.3726623953       -1.1292604465
 H        -0.9578782040       -3.0127692887       -1.7002162374
 H         1.2446588936       -0.2879440310        1.7699859750
 H         2.5028252117       -1.3229967684        1.1020343353
 H         6.6150388568       -3.0959877789        3.4887622201
 H         5.3067522157       -3.9125815732        4.4920066130
 H         4.4313503932       -0.2429301977        4.7486108766
 H         2.7645373350        0.2973498245        4.4143851523
 H         3.8526537355        0.2217284247        3.1393496668
 H         3.5064940448       -3.5645829724        4.8364003440
 H         4.2865856283       -2.3295382305        5.7156980780
 H         2.5285072490       -2.2699450068        5.7340998669
 H         6.1985419744       -4.8378787560        1.5882838200
 H         5.8762916927       -5.6891481395        3.1723281983
 H         2.2004992604       -4.7451159086       -0.6862684929
 H         3.1849870584       -3.3737980159       -0.5548021491
 H         6.0889675269       -7.0943271490        1.1599112856
 H         5.0662637493       -7.6192028531       -0.1980798891
 H         4.6536863097       -8.2172004118        1.4167734275
 H         1.8284731125       -5.8985216597        1.1123850272
 H         2.2227962648       -7.1513469643        0.0241515743
 H         2.4529898480       -7.3232547912        1.7377422885
 H         3.0641284303       -5.1880418404       -3.0451974220
 H         4.2696154438       -3.8930371162       -2.8733950756
 H         0.9989964713       -0.7347645618       -3.2439107786
 H         2.7125263494       -0.4078023660       -3.0388382308
 H         2.3343403890       -4.9238096202       -5.4318044667
 H         3.8111430805       -4.1927052249       -5.3509170492
 H         2.5956830574       -3.5597593891       -6.5828691924
 H         0.2738292527       -2.5661812246       -5.7610203181
 H         0.4879237446       -4.1722764137       -5.3312667276
 H        -0.2282199892       -3.0193644289       -4.1706557255
 H         2.2861312963        1.7924689777       -3.9041335920
 H         2.6420793187        1.0131480573       -5.3182749887
 H        -2.3754652361        2.8977447017       -7.4308730635
 H        -1.4603477168        4.3234667220       -7.7738112947
 H        -0.6795802494        2.7357039833       -8.1662743476
 H         1.7882662298        4.2477457947       -3.9557142951
 H         0.1882783960        4.0379069114       -3.4767780797
 H         0.6136510281        5.2026255814       -4.7395484511
 H         2.5936198544        3.1448892508       -6.3219084118
 H         1.3282336660        2.5584197417       -7.4803879356
 H         1.6040944701        4.2557258528       -7.1381423750
 Na       -2.6019104948        0.9215499972        1.2569809294
