155

 C        -0.2947027863        4.3890536427        3.0921050572
 C        -1.0011255954        3.0586602874        2.9609723738
 C        -1.7124413063        2.4569759689        4.2442061265
 C        -3.3016553935        2.2427995753        3.9327564214
 C        -4.3759169819        2.8136611445        4.8636802532
 C        -1.1387400265        1.0944338775        4.5380861610
 C        -1.5573523012        3.3649959427        5.4352183493
 O        -0.9942673259        2.4334898742        1.9146788168
 O        -3.6261298197        1.6270021952        2.9189080091
 C        -5.6237888543        3.2970479898        4.0933099756
 C        -5.2566069128        4.4928637906        3.2086802122
 C        -6.3943687203        5.2385191460        2.4826685751
 C        -6.6144393979        4.1993659479        1.1823743230
 C        -6.2361488475        4.8006210974       -0.1978543446
 O        -4.1313740351        4.6793721322        2.8031722561
 O        -6.9600580466        3.0728396802        1.3806452327
 C        -7.7750250191        5.1828600270        3.2809316055
 C        -5.9733427897        6.7101482757        2.2197688815
 C        -6.0129066297        3.7142879210       -1.2886609313
 C        -4.6827466296        2.8847280285       -1.1869551544
 C        -3.7254778260        2.6989351582       -2.4939753363
 C        -2.9223742563        1.4441131228       -2.2345499925
 C        -3.3681635822        0.1879933812       -2.9584165666
 C        -4.5661310899        2.6823752848       -3.7811773184
 C        -2.7121523423        3.8353281241       -2.4546867700
 O        -4.3136604977        2.5379357825       -0.0827520997
 O        -2.1320111352        1.2899617782       -1.2967622182
 C        -2.6915709185       -1.1303111503       -2.3707013939
 C        -2.9746262173       -1.3436946133       -0.7972218157
 C        -2.1931276556       -2.4979065939       -0.0490287318
 C        -1.0153560504       -1.7083789978        0.7060103269
 C         0.1935583462       -2.5016101873        1.1374706402
 O        -3.8818167855       -0.8040648864       -0.1904914922
 O        -0.9733335740       -0.5125868825        0.8379819573
 C        -3.0389765445       -2.9249975699        1.3398489881
 C        -1.7220103806       -3.6761278566       -0.9279726709
 C         1.1337316456       -1.5177099219        1.9052395457
 C         1.4881144175       -2.0941696892        3.3331642697
 C         2.9059413767       -1.6144532498        3.9829639690
 C         4.0087817268       -2.2197719517        3.1064775633
 C         4.9802362171       -3.3070791234        3.5245382377
 C         3.1265290444       -0.0812555973        3.7799292997
 C         3.0156784106       -1.8694554838        5.5289969822
 O         0.7392058302       -2.8773118048        3.8426127654
 O         4.0273794950       -1.7804062957        1.9414331839
 C         5.3718240769       -4.1318626260        2.3361086239
 C         4.1762968172       -5.1012230195        1.8774214707
 C         4.2383389490       -6.1550591584        0.7491304098
 C         4.6662001631       -5.4201503208       -0.6583383550
 C         3.9051637046       -4.0964733624       -0.9383314971
 O         3.1179573208       -4.9959856884        2.4758352828
 O         5.5512591789       -5.8537637258       -1.3202612909
 C         5.1990950665       -7.2645273693        0.9224568192
 C         2.7828209119       -6.6697833836        0.5000795713
 C         3.6936003371       -3.8335157399       -2.4914609914
 C         2.6633063558       -2.7477783468       -2.8789961050
 C         2.3907988568       -2.2899838160       -4.2563198085
 C         2.7628081668       -0.7335408302       -4.3235928570
 C         2.4648235140        0.1538493601       -3.0175011477
 C         3.1542697630       -3.0138601481       -5.3724019057
 C         0.8333073457       -2.3322712827       -4.4668199259
 O         1.9050527706       -2.3227202512       -2.0300409446
 O         3.2569196797       -0.2201990568       -5.3155465499
 C         2.1044869234        1.5229818387       -3.4876271613
 C         0.8735628182        1.4432666998       -4.4562701855
 C         0.8972694481        2.5449342642       -5.5653930507
 C        -0.6019195341        2.8114262172       -6.0903397823
 C        -0.7183595191        3.1634545834       -7.5414587266
 O         0.0577722518        0.6236138169       -4.3382571458
 O        -1.5150394648        2.7249853627       -5.3180153759
 C         1.3932299336        3.8567242084       -5.0136758495
 C         1.8669299835        1.9806074091       -6.7350334547
 H        -0.0682427149        4.7699206472        2.0441635540
 H        -0.9717892302        5.1560598303        3.6460939677
 H         0.6177232398        4.2749796894        3.6161403510
 H        -4.5732341158        2.1127244284        5.7433161200
 H        -3.9937223410        3.6879912362        5.3688638199
 H        -0.0813293044        1.2055851907        4.5810196377
 H        -1.2723035689        0.3800621635        3.7567057994
 H        -1.5004965202        0.6945003810        5.5172035014
 H        -2.1104992218        4.3132988721        5.5096714487
 H        -1.5843235670        2.8822855241        6.4337661286
 H        -0.5262175417        3.6932140862        5.3169565653
 H        -6.0428705483        2.4427822250        3.5754181830
 H        -6.2959160193        3.6023238005        4.8937955964
 H        -6.8790835616        5.6493640227       -0.5908338920
 H        -5.3048989312        5.3873842721       -0.0080981930
 H        -8.0712802291        4.1482460057        3.4524500828
 H        -8.6064579956        5.8090417327        2.8047181748
 H        -7.6509832931        5.4549717967        4.3444054873
 H        -5.6951675439        7.1701311710        3.1443318009
 H        -5.1355841619        6.8761617301        1.5708284210
 H        -6.8674248593        7.2399358202        1.7151377652
 H        -5.9697740706        4.2251616020       -2.2892160772
 H        -6.8484052262        2.9591503179       -1.2056818039
 H        -4.4689127787        0.0178411817       -2.8697355165
 H        -3.0030462499        0.2527510244       -3.9442805740
 H        -5.2990850564        1.8702592264       -3.8463706755
 H        -3.8816506411        2.4421102170       -4.5984667553
 H        -5.0491996433        3.6520132528       -3.8263229155
 H        -3.0141037111        4.7925695731       -2.0248381863
 H        -1.8541330940        3.5939540118       -1.8653529661
 H        -2.6103558616        4.0030742900       -3.5098087314
 H        -3.0692283103       -1.9488542764       -2.9383424608
 H        -1.6013580443       -1.0882830075       -2.5253438460
 H        -0.1458977271       -3.2939341417        1.7763611266
 H         0.9020871104       -2.9843503229        0.4384038919
 H        -3.8911764945       -3.5146973459        1.0295625068
 H        -3.4075764019       -2.0811173158        1.9076958108
 H        -2.4831710268       -3.5928109863        1.8680781112
 H        -1.7274381573       -4.6448470922       -0.3368820617
 H        -2.3537829254       -3.8733422174       -1.8068990371
 H        -0.8446523130       -3.5912198998       -1.5211978899
 H         0.6490541532       -0.5731371428        1.9497284463
 H         2.0044761303       -1.2656952330        1.4158786997
 H         5.8436886884       -2.7258115782        3.9230258787
 H         4.5456789904       -3.8286054694        4.3144771381
 H         4.1440018324        0.1227841841        4.1422884404
 H         2.4255615179        0.5206922364        4.3439163790
 H         3.3241113824        0.2003357097        2.7190459195
 H         2.5807193263       -2.8960816557        5.6529719053
 H         4.0811654031       -1.8232848368        5.7874813317
 H         2.3760832211       -1.2793888001        6.1208630179
 H         5.8320475915       -3.6091521638        1.4536566119
 H         6.1756916029       -4.7112090073        2.7292516591
 H         2.9602425547       -4.1133042545       -0.3883020074
 H         4.6211295489       -3.4195208768       -0.5711866637
 H         5.9538253495       -6.9049760480        1.6296676236
 H         5.6479835570       -7.4737277202       -0.0139936632
 H         4.6587438181       -8.1329401495        1.2303588808
 H         2.7736130158       -7.7580431829        0.4969329048
 H         2.1464143212       -6.3302377126        1.3419662357
 H         2.2875599592       -6.3264871016       -0.4156428206
 H         3.2925791376       -4.7143186767       -3.0290739943
 H         4.6262986942       -3.6501604571       -2.9970363880
 H         1.6280590358       -0.2405796289       -2.4156858385
 H         3.2609493564        0.1520799322       -2.2146633134
 H         2.6910507447       -3.9874718672       -5.5730458550
 H         4.1591230480       -3.1072855916       -5.1045421035
 H         3.0855316618       -2.4711081902       -6.3032821320
 H         0.5008299770       -1.6841383497       -5.3456309918
 H         0.6063426524       -3.4100373279       -4.6751206770
 H         0.3312727296       -2.0802428331       -3.5263292407
 H         1.9139695854        2.1599121456       -2.6435958399
 H         2.9885947183        1.8471077996       -4.0376418861
 H        -1.7019306584        3.2725944342       -7.9677234853
 H        -0.0096225175        3.9304490488       -7.7278836044
 H        -0.3083786088        2.2367573505       -7.9633509591
 H         2.4670641950        3.8637234779       -4.6404262480
 H         0.7555598304        4.2005733404       -4.2193520981
 H         1.3651452470        4.7109043153       -5.8467498115
 H         2.8288424355        1.7869439100       -6.1681301397
 H         1.5890843565        0.9903488658       -7.0802299582
 H         1.9088546342        2.6388154416       -7.5920733773
 Na       -2.7577284925        1.1980205107        1.0548843722
