155

 C        -2.0944103176        4.9024970556        3.5813090991
 C        -1.7743833042        3.4318067455        3.1866717975
 C        -2.1439812241        2.1393163450        4.1770119581
 C        -3.5104590542        1.5258225751        3.6967810785
 C        -4.8267684739        1.6910183541        4.5146524508
 C        -1.0696998797        1.0995790543        4.1624384560
 C        -2.3451293259        2.6897312127        5.6592059900
 O        -1.2660635884        3.1301593559        2.1482940524
 O        -3.5382599773        1.0199545303        2.5933107119
 C        -5.9583743472        1.9694605476        3.4826339765
 C        -6.0027085764        3.4475044005        3.1445429522
 C        -7.2624310685        4.0311262904        2.4322027424
 C        -6.7765129765        4.2062725355        0.8364940263
 C        -5.6638976284        5.1396418475        0.3583956921
 O        -4.9418370459        4.1127172013        3.1620495897
 O        -7.2717651985        3.4070964773        0.1206935846
 C        -8.4849101220        3.0696831226        2.5075239153
 C        -7.6889316478        5.3642392333        2.9787205111
 C        -5.1266253491        4.8154917443       -1.0118904454
 C        -4.1385661443        3.5793576474       -1.0844189080
 C        -3.8157227046        2.8681536642       -2.4822020831
 C        -2.7696263299        1.7006243853       -2.2021277389
 C        -2.7192909230        0.3915397772       -2.9955913256
 C        -5.0158417893        2.2927338197       -3.2967705331
 C        -2.8752452725        3.8225647636       -3.3653317658
 O        -3.5555479763        3.2545546446       -0.0642122565
 O        -1.9433519568        1.8959748935       -1.3397113911
 C        -2.0924019503       -0.7176346758       -2.1535126310
 C        -2.9901110099       -1.0743077366       -0.7907249992
 C        -2.5747584594       -2.2704756731        0.0498016387
 C        -1.1244956231       -1.7960534496        0.6161586852
 C        -0.1239593245       -3.0147299951        0.9258109018
 O        -3.8419777874       -0.2564327484       -0.4019039504
 O        -0.7671614630       -0.6382704202        0.8632122956
 C        -3.5873474966       -2.3805588722        1.2066777280
 C        -2.4912955847       -3.5750765884       -0.8029689477
 C         1.2541903282       -2.7868562087        1.5057195161
 C         1.0931333945       -2.0919711455        2.9169342466
 C         2.3960064955       -1.5706481609        3.6404952364
 C         3.5797366398       -2.5544098877        3.3665305431
 C         3.3284179792       -4.0513790555        3.8865300431
 C         2.8888270405       -0.0996341016        3.3418452699
 C         1.9527786166       -1.5417898451        5.1542476675
 O         0.0263762837       -2.0584605909        3.4926442561
 O         4.6467311405       -2.2076962304        2.9450721938
 C         4.4085122252       -5.0238862484        3.2177796785
 C         3.8790353395       -5.5156391276        1.9326412161
 C         4.9658832427       -6.1030914732        0.8588685021
 C         4.9376800163       -5.0711300361       -0.3336722446
 C         4.2524924505       -3.6019128156       -0.1601152489
 O         2.7089964000       -5.6283397643        1.6302700617
 O         5.1441871197       -5.4035013581       -1.4647162796
 C         6.5183850947       -6.0350895215        1.3236603301
 C         4.6155336842       -7.5640195580        0.4213514670
 C         4.6309219844       -2.6327513240       -1.3341763534
 C         3.3933156420       -2.3320051450       -2.1963063078
 C         3.5511427027       -1.4769507206       -3.5685619847
 C         3.5746604722        0.1080300728       -3.2513410105
 C         2.1605489278        0.6990492883       -2.8670140202
 C         4.7628247211       -1.8062911239       -4.3602354476
 C         2.3077706239       -1.8122694944       -4.4529237145
 O         2.2559325880       -2.6329320307       -1.8026105039
 O         4.5413166885        0.8193131404       -3.3679793884
 C         1.9195394114        1.9756409706       -3.7880076618
 C         1.1213064225        1.5837510790       -5.0075174517
 C         1.1743280954        2.4881743671       -6.3223944818
 C        -0.3873051998        2.6193411412       -6.5924710601
 C        -0.9630827306        1.8148229064       -7.8247244572
 O         0.4146109394        0.6048083238       -5.1006032812
 O        -1.1368528524        3.2815445504       -5.9501763265
 C         1.7442872867        3.9385772794       -6.1640604760
 C         2.0152287789        1.7489679690       -7.3885682042
 H        -1.7602245712        5.6195218290        2.8459213685
 H        -3.1414490228        4.9870745235        3.6557230455
 H        -1.5769314603        5.1576855270        4.5330706757
 H        -5.0409209382        0.7952111361        5.0333072620
 H        -4.7844100315        2.5494305085        5.2469158545
 H        -0.1116582732        1.6019002289        4.1937123685
 H        -1.1389564217        0.6462176536        3.2050950494
 H        -1.2043686136        0.3760130114        4.8847056131
 H        -3.2145221119        3.3728184007        5.7815941838
 H        -2.5395589324        1.7851114342        6.2568401562
 H        -1.4504140940        3.2089066575        5.9725336455
 H        -5.9462076242        1.2979500525        2.5542746106
 H        -6.9150408223        1.6301551766        3.8696980040
 H        -6.1469761631        6.1528671590        0.2772089284
 H        -4.8783743614        5.0942935574        1.1302538866
 H        -8.4088459678        2.0842567418        2.0788274314
 H        -9.1689889026        3.6075261767        1.9497490622
 H        -8.7662721591        2.9096467548        3.5998773555
 H        -8.0351707117        5.1740536151        4.0135853200
 H        -6.8665319950        6.0918348329        3.1287437459
 H        -8.3823376725        5.8533928499        2.3787870415
 H        -4.6784368991        5.7155249066       -1.5111720749
 H        -6.0332363536        4.6048700770       -1.6606681723
 H        -3.7732328258        0.1586822563       -3.0283817942
 H        -2.4786620803        0.5636792904       -4.0604029820
 H        -5.5535174933        1.6628939787       -2.5598790850
 H        -4.5248072488        1.6140963721       -4.0134515206
 H        -5.7455355360        2.9881843774       -3.7750437913
 H        -3.3701305013        4.6851032582       -3.8102643504
 H        -2.1043197329        4.3640366468       -2.6609232030
 H        -2.5204504255        3.3060424783       -4.2489555911
 H        -2.1243429473       -1.7337834599       -2.5817395555
 H        -1.0151709089       -0.6312674248       -1.8341360521
 H        -0.8672305254       -3.5510971079        1.5596067440
 H        -0.1646140797       -3.4505447914       -0.0673941435
 H        -4.6080931482       -2.5755152093        0.8387359059
 H        -3.7762668309       -1.3976415210        1.7122114886
 H        -3.4545046134       -3.1901146173        1.9362775214
 H        -2.2649491668       -4.3999222329       -0.1545424630
 H        -3.4060335207       -3.8325798758       -1.3500612324
 H        -1.7935508152       -3.4254516442       -1.6779739286
 H         1.9341882281       -2.2883428886        0.8777709561
 H         1.4693744151       -3.8651737402        1.7420980369
 H         3.4384796218       -4.1628157604        4.9969014380
 H         2.2418236580       -4.2714136860        3.6557072432
 H         3.2725402981        0.4361087907        4.1782510349
 H         2.0884595697        0.5257972664        2.8292032416
 H         3.7031961207       -0.1264172500        2.7174600740
 H         1.7238435044       -2.4552502020        5.6664963323
 H         2.6215464746       -0.9536251322        5.8184295290
 H         0.9749989621       -1.0047440444        5.1707728304
 H         5.3466288081       -4.3993272559        3.1329616618
 H         4.6308207288       -5.8799022262        3.9123701527
 H         3.1596204427       -3.8194773903       -0.1332840670
 H         4.5064522288       -3.1302836141        0.7869167318
 H         6.8619317290       -5.0270917816        1.1111513253
 H         6.9711620204       -6.7650691549        0.7168342105
 H         6.5039885088       -6.3776165289        2.3275197318
 H         4.0254936877       -7.5905109294       -0.4751946799
 H         5.5030392080       -8.1763334504        0.3496649567
 H         4.0776748158       -7.9265975444        1.2803308771
 H         5.4040924139       -2.9789551620       -2.0034935258
 H         4.8369352696       -1.6220281214       -0.9349289790
 H         1.3579387565       -0.0096312352       -2.9761668003
 H         2.2731590017        1.0187838239       -1.8586922858
 H         4.7531618964       -2.8401058718       -4.5161782930
 H         5.6824946435       -1.4716293095       -3.9347474714
 H         4.7407598080       -1.3112334789       -5.3747909742
 H         2.1298320387       -1.1249163998       -5.2591832310
 H         2.3423019067       -2.8126522951       -4.9274955107
 H         1.4220191955       -1.7277607970       -3.7639476136
 H         1.3286019079        2.7368723883       -3.2113805313
 H         2.6957840931        2.6371807507       -4.1488720300
 H        -1.9738473419        1.6339332829       -7.5228676256
 H        -0.9257739508        2.5586640138       -8.6096876856
 H        -0.4065918072        0.9471984456       -8.1178565781
 H         2.8368775190        3.8669215871       -6.0642254579
 H         1.3179009401        4.4321869500       -5.3656970459
 H         1.6227187789        4.5304744393       -7.1260162207
 H         2.9586395536        1.4317441791       -7.0485302022
 H         1.5597325343        0.7941135867       -7.7830467282
 H         2.1229885337        2.3712313383       -8.3284647349
 Na       -2.1645118741        1.2789506492        1.0193300061
