155

 C        -2.9193870629        4.3087062195        4.9437238393
 C        -2.7319944192        3.1347398899        4.0111010408
 C        -3.4448816346        1.7331942496        4.2424758510
 C        -4.6883885349        1.6734525129        3.3042044197
 C        -6.0547461710        1.4425391825        3.9809418577
 C        -2.4098965791        0.5747044815        3.8676288361
 C        -3.7033957808        1.6117147807        5.8092325447
 O        -1.8688561181        3.2745189982        3.1453978434
 O        -4.5929038867        1.5601635473        2.1345596300
 C        -7.0895233699        1.2272415516        2.8825554993
 C        -7.2530082734        2.5895836699        2.1183979927
 C        -8.1850789837        2.6507563594        0.8732594484
 C        -7.3123398751        3.4655037334       -0.2734362579
 C        -6.5657745216        4.7454046606        0.1123106131
 O        -6.6870550284        3.5165805907        2.5712404096
 O        -7.4706564803        3.0750484778       -1.4055484925
 C        -8.5216854948        1.2617734534        0.2949646052
 C        -9.4960384409        3.4670853622        1.1055898664
 C        -5.4640395778        4.9290141866       -1.0410850313
 C        -4.1900066236        4.1342698025       -0.7179422882
 C        -3.1919610384        3.8239497789       -1.9105622060
 C        -2.6995989942        2.3334063657       -1.8364549996
 C        -3.5244186734        1.1624409948       -2.5066636639
 C        -3.7720468787        4.1043933797       -3.3210963091
 C        -1.9569193314        4.8315256282       -1.6134984639
 O        -3.9557658056        3.6358635760        0.3731171030
 O        -1.6499181448        2.0100488000       -1.2365108862
 C        -2.7110176924       -0.1567068823       -2.3895372212
 C        -2.3578055000       -0.4841056534       -1.0286173698
 C        -1.2689329835       -1.5470612882       -0.6632813600
 C        -0.2872071659       -0.7612797213        0.3290670312
 C         1.0635895434       -1.2540364602        0.4079100784
 O        -3.0673969582       -0.0161321502       -0.1614056068
 O        -0.5847534428        0.1388508724        1.1210809153
 C        -2.0889229305       -2.6260537137       -0.0702317489
 C        -0.5227151853       -2.1064599195       -1.9513390646
 C         1.4905117370       -1.2172095611        1.9490015203
 C         0.7422259929       -2.2123319740        2.8620151687
 C         1.4590713249       -2.4559874479        4.2691109413
 C         2.6679990008       -3.4285784725        4.0709963960
 C         2.2952695372       -4.9667063692        3.9272041268
 C         1.9419010491       -1.0768315949        4.7595772690
 C         0.5319019015       -3.1072729441        5.3333156353
 O        -0.1967924109       -2.8546130224        2.5235651184
 O         3.7806732401       -3.0075687455        4.0761941591
 C         3.5409291173       -5.6957743483        3.3629140677
 C         3.9672063492       -5.1802828936        2.0371108282
 C         5.4702727139       -5.6031527732        1.3287368932
 C         5.7570656936       -4.9986314284       -0.1273831298
 C         5.4089690529       -3.5813567784       -0.4434168531
 O         3.1327768906       -4.5490790593        1.3749892883
 O         6.2370838198       -5.7943355115       -0.9229615981
 C         6.4872710798       -4.9084993833        2.3572111172
 C         5.6832381235       -7.0608696505        1.3080966850
 C         5.9298084717       -2.7857714746       -1.6119611103
 C         4.9863600504       -1.5720301841       -1.8492779020
 C         5.4767005048       -0.5314726524       -2.8220455867
 C         4.2601978937        0.3688451068       -3.4488629407
 C         2.9697833107       -0.2876756077       -4.0510915792
 C         6.5401340553        0.3903957929       -2.1493280401
 C         6.1623757611       -1.2259823696       -4.1023511698
 O         3.9711869161       -1.4770452133       -1.2354858013
 O         4.5383726561        1.4994248579       -3.7947892494
 C         1.7635211513        0.6732616764       -4.2162338999
 C         1.5967485036        1.1475920831       -5.7125756208
 C         0.5366792017        2.1607447681       -6.1893156078
 C        -0.8467721987        1.4851216714       -6.0462100645
 C        -1.9124320758        1.8329725764       -7.1201767281
 O         2.3276390644        0.5803448817       -6.4963407097
 O        -1.1368216719        0.6724682586       -5.1327237370
 C         0.3814270799        3.4541202184       -5.4127604316
 C         0.8805529228        2.4201406277       -7.7411855104
 H        -2.2945966930        5.0581781985        4.5474738364
 H        -3.8599686495        4.6770078659        5.0112626324
 H        -2.5273090302        4.1164143292        6.0007655041
 H        -5.9117792497        0.4954425508        4.4845695587
 H        -6.2388785027        2.1714965045        4.7894341513
 H        -1.4148629597        0.7230252377        4.3828903556
 H        -2.2280265861        0.7087781080        2.8339497516
 H        -2.7469003040       -0.4354425444        4.0676697400
 H        -4.1950786251        2.4396460130        6.2069562190
 H        -4.3295141892        0.7682284150        6.0959944577
 H        -2.8400044176        1.6963145039        6.4954155640
 H        -6.8463827021        0.2999114287        2.3975058297
 H        -8.0695945296        0.9683043565        3.2467650946
 H        -7.2823074049        5.5492440587        0.2456963812
 H        -5.9460233757        4.5623321680        0.9280288739
 H        -7.7316151182        0.6333080899        0.6068398025
 H        -8.6094291195        1.2946905282       -0.8097166023
 H        -9.4464183618        0.9044329403        0.4984363322
 H       -10.2366569664        2.8991163747        1.6012494811
 H        -9.3428456745        4.2367774166        1.7894533145
 H        -9.9333406204        3.8044914716        0.1565594376
 H        -5.1990055572        5.9477304337       -1.1997468448
 H        -5.8521002362        4.5033071009       -1.9713790392
 H        -4.4756613735        0.9898151643       -1.9601041348
 H        -3.6647069903        1.4091881063       -3.6106384352
 H        -4.7645551967        3.5631006425       -3.5078553607
 H        -3.1366904562        3.7712750543       -4.1873075891
 H        -3.8923746027        5.2286252946       -3.3921425180
 H        -2.5922315461        5.7641380566       -1.5636739240
 H        -1.4116672993        4.7643274879       -0.7160412520
 H        -1.1813762317        4.8396063745       -2.4081003588
 H        -3.3465800842       -0.9999084695       -2.7814713262
 H        -1.8794045039       -0.2146243888       -3.1513272811
 H         1.5017211772       -2.2508946347        0.0930303653
 H         1.6589784990       -0.4954624666       -0.1055882091
 H        -2.5848947345       -3.2748578909       -0.8609597083
 H        -2.7504436654       -2.2471997937        0.7803799329
 H        -1.3844553622       -3.2820876907        0.5242077619
 H         0.1705206292       -2.9190725835       -1.6161892649
 H        -1.3214011226       -2.6365925236       -2.6044599657
 H         0.0277253585       -1.2951064500       -2.4662861648
 H         1.4622443377       -0.2272137325        2.2917437262
 H         2.5900263120       -1.4284330950        2.0651189689
 H         2.1922535566       -5.3072575726        4.9902066162
 H         1.4700766964       -5.2431770133        3.3365935382
 H         2.5695995015       -1.2247082197        5.6248239307
 H         1.1463431460       -0.4402450815        5.0388400795
 H         2.5055383223       -0.5128466956        3.9805535185
 H         0.0892991106       -4.0548364621        5.0174838258
 H         1.2391073127       -3.2963900076        6.1102744297
 H        -0.2531670926       -2.3888391200        5.6721694354
 H         4.3245419350       -5.7311307826        4.1038970457
 H         3.3005355107       -6.7481339388        3.2394517410
 H         4.2590133483       -3.5304268885       -0.4787562060
 H         5.5489858297       -3.0127229883        0.4530552326
 H         6.5429139964       -3.8427285064        2.4578710768
 H         7.5555333328       -5.1341270753        2.0230078892
 H         6.4445410568       -5.2439149461        3.4290812206
 H         6.6915307373       -7.3734371844        1.4994660695
 H         5.0262215130       -7.6630226214        1.8972089813
 H         5.5166863298       -7.4206126084        0.2696678936
 H         5.8477769812       -3.4162024155       -2.5587809496
 H         6.9211885501       -2.4466349358       -1.5010567632
 H         3.3794007615       -0.4716973393       -5.0594379469
 H         2.6238182306       -1.2782861288       -3.6994538822
 H         7.5480956798       -0.0058841476       -2.1741823357
 H         6.3518827409        0.4630274498       -1.0122213399
 H         6.3381405235        1.4238834144       -2.5930798197
 H         6.4375071839       -0.5084344774       -4.8134351690
 H         7.0537732860       -1.6349669333       -3.7055557764
 H         5.5106087402       -2.0069636402       -4.4700189465
 H         0.8121517925        0.2010804762       -3.9863509586
 H         1.8431678588        1.5301729338       -3.5378465459
 H        -1.8098971840        2.7946988147       -7.5917799028
 H        -1.8758317953        1.0496945760       -7.9042703288
 H        -2.9006483999        1.6976850486       -6.6783340648
 H         1.3339179553        4.0308196557       -5.3206861425
 H         0.0556909858        3.1799363603       -4.4411382237
 H        -0.4960540914        3.9714268488       -5.8360700524
 H         1.0382740974        3.5602698220       -7.9228772463
 H         1.8314935592        1.8906844368       -7.8358502958
 H         0.2394822127        2.1329221947       -8.5386162876
 Na       -2.4749772428        1.8606744806        1.0545000530
