155

 C        -3.3012763049        3.8154375693        5.1933613047
 C        -3.1061189907        2.6794345146        4.1367694166
 C        -3.8597747950        1.2677211139        4.2793857011
 C        -4.9532274571        0.9948229313        3.1485044115
 C        -6.3639785361        1.4739096200        3.3806609195
 C        -2.8739391276        0.0761993407        4.1543644932
 C        -4.4610525031        1.1589077550        5.6791387662
 O        -2.5345837490        2.8713364423        3.1134909388
 O        -4.6388067899        0.4660088891        2.0911050269
 C        -7.2289008038        1.3656425667        2.1074740221
 C        -7.9593761677        2.6359577015        1.7626267702
 C        -8.6454676179        2.7409938719        0.3710495919
 C        -7.3511334977        2.9394759867       -0.5148925746
 C        -6.9698178370        4.4175632528       -0.8289322526
 O        -7.7196663144        3.7004141434        2.3778388349
 O        -6.6592244985        2.0535213331       -0.9602257113
 C        -9.4197343829        1.4558366859       -0.0995713160
 C        -9.5596663882        3.9530868006        0.2773163364
 C        -5.4917063872        4.6547909480       -1.3281833914
 C        -4.3381461114        3.9114761323       -0.8008670300
 C        -3.0949186250        4.1586157508       -1.5611516537
 C        -2.2978728110        2.7300768315       -1.8316967830
 C        -2.8980060746        1.6900713761       -2.7510628172
 C        -3.2501966908        4.7663425816       -2.9696744482
 C        -2.2257132591        4.9110009788       -0.5675231171
 O        -4.3722191655        3.1526080654        0.1815544513
 O        -1.1299382719        2.7021001300       -1.4396401616
 C        -2.0381234511        0.2514338767       -2.7871392146
 C        -1.9523928001       -0.2095781002       -1.3293666214
 C        -0.7361591580       -1.0380166019       -0.8751315389
 C        -0.1466309681       -0.5962216069        0.5480313471
 C         1.2456804441       -1.2143572272        0.9297380871
 O        -2.7951412541        0.1041344957       -0.4672215826
 O        -0.6808527819        0.1544739921        1.3348914139
 C        -1.3507436395       -2.5579818432       -0.7985579448
 C         0.3169490693       -0.9976287831       -1.9419462278
 C         1.6432902808       -1.2483891765        2.4629999473
 C         0.7895690069       -2.2396284549        3.3004208658
 C         1.2533061615       -2.7677601747        4.7280352722
 C         2.6160747632       -3.5466699912        4.3987746395
 C         2.3867789293       -4.9021234162        3.8629559425
 C         1.5341589005       -1.4922213235        5.5654116426
 C         0.1199838226       -3.4723242226        5.4452370002
 O        -0.2734638719       -2.5593462773        2.8664191386
 O         3.6929163240       -3.0270313187        4.5243937501
 C         3.6872999267       -5.5350762461        3.4351954975
 C         4.0578745964       -5.1351438990        2.0091703749
 C         5.6031750261       -5.4409850888        1.4468292369
 C         5.9591279863       -4.4617266439        0.3399081705
 C         5.1854857991       -3.1910534168       -0.1743032702
 O         3.2700529546       -4.6680357159        1.1909527280
 O         6.9947886377       -4.7727019445       -0.2490263866
 C         6.6125800812       -5.4659931202        2.5729690073
 C         5.4146543284       -6.8492770288        0.7260706530
 C         5.9343169605       -2.5926110404       -1.4042368402
 C         5.0940163176       -1.5647195097       -2.1152374718
 C         5.6481632256       -0.3464099596       -2.8963777692
 C         4.6229771676        0.7107898870       -3.2482806421
 C         4.0505853513        0.9394155280       -4.7839206705
 C         6.6565722219        0.5299407695       -1.8957798485
 C         6.4664516070       -0.8546661515       -4.0514821574
 O         3.9025367384       -1.6531179829       -1.9404602903
 O         4.0063799125        1.3396428337       -2.3910495791
 C         2.5063059212        1.3391185156       -4.7862925582
 C         1.8514593644        1.4021230598       -6.1944493681
 C         0.3170497660        1.7772122230       -6.2718098643
 C        -0.6570442973        0.7768042946       -5.8105833656
 C        -2.1142153721        1.1355718278       -6.2771686227
 O         2.4029213862        0.9290847593       -7.1746985389
 O        -0.4503298456       -0.1557029855       -5.0379479011
 C         0.0417286870        3.0334643563       -5.3343511746
 C         0.0764663052        2.2460976907       -7.7241418421
 H        -2.9222527209        4.7840535993        4.9294121216
 H        -4.2952769720        3.8807133971        5.4737156390
 H        -2.8051571765        3.4256999956        6.1631094339
 H        -6.7298523554        0.9346538103        4.2823259235
 H        -6.2959261562        2.5350157558        3.6084999225
 H        -2.2360679675       -0.1353177317        5.0949181826
 H        -2.2988746083        0.2867638558        3.2576980167
 H        -3.4463415156       -0.8164839917        3.8738245684
 H        -5.2818956287        1.8558991097        5.8938237939
 H        -4.9249968503        0.1590010470        5.8703597793
 H        -3.6442878542        1.2701920575        6.3919966725
 H        -6.6401118726        0.9826251273        1.2851585137
 H        -8.0379906386        0.5575834923        2.1133623964
 H        -7.6613280744        4.8223469242       -1.5598131822
 H        -7.0921791612        5.0762398167        0.0074337944
 H        -8.8107369272        0.8030875678       -0.7143206531
 H       -10.2116411420        1.7860829969       -0.8414096809
 H        -9.7175573344        0.8240425952        0.6271050513
 H       -10.3951419742        3.7889863104        0.8507689753
 H        -9.1091756269        4.8697124763        0.5299854536
 H        -9.9711088080        4.1878695841       -0.7326693735
 H        -5.2316130898        5.7259346559       -1.2958729856
 H        -5.4994930459        4.4629971323       -2.3770493399
 H        -3.8779508797        1.5297953839       -2.1896980511
 H        -3.1918926407        2.0573921131       -3.7296489452
 H        -3.8203206963        4.0388722625       -3.6396703714
 H        -2.2443676064        4.8791713164       -3.3966291070
 H        -3.7640544769        5.7567443859       -2.8553003379
 H        -2.5824380969        5.9642710633       -0.4309874134
 H        -2.1778826853        4.3268574346        0.2888665161
 H        -1.2289465585        5.0817975913       -1.0769052590
 H        -2.2518879827       -0.4411549614       -3.6405973464
 H        -1.0719125208        0.6724657474       -3.0607946050
 H         1.3703306137       -2.2701233089        0.5954551845
 H         2.0127249113       -0.5748187618        0.3968254098
 H        -1.1589033671       -3.0478045339       -1.7891657606
 H        -2.4809920820       -2.5333535511       -0.5769033402
 H        -0.7189675278       -3.2354461538       -0.1700634750
 H         1.1854334229       -1.6189781626       -1.6923590830
 H        -0.0899625855       -1.3384235654       -2.9594960132
 H         0.7871827573        0.0255394955       -1.9995638380
 H         1.6424914405       -0.1968346500        2.8447849952
 H         2.6024842346       -1.6479482515        2.4512128765
 H         1.8881840398       -5.4883444885        4.6316901804
 H         1.6713174103       -5.0474664994        3.0366439888
 H         0.6118344194       -1.0597866676        5.5684461711
 H         2.1344901859       -0.7210789586        5.0609197556
 H         1.8520830143       -1.6252284353        6.6254808222
 H        -0.2693807480       -4.2337595286        4.8062587898
 H         0.5154987831       -3.7976978489        6.4414069468
 H        -0.6958524392       -2.8078278824        5.4794244401
 H         4.4789553335       -5.3575274657        4.1511937495
 H         3.5490744659       -6.5670860060        3.4447660190
 H         4.2473715677       -3.5715960437       -0.5774776584
 H         5.0089178618       -2.4373257223        0.6185932813
 H         6.8551726642       -4.5182964076        2.9879354124
 H         7.6640686280       -5.6760409216        2.2363313960
 H         6.3978850430       -6.2294365283        3.3268755645
 H         4.5573456556       -7.3671286394        1.2502833202
 H         5.3117745139       -6.8091976526       -0.3583864396
 H         6.3337786005       -7.4085300898        0.9192202778
 H         6.2111389449       -3.4397211323       -2.0582278321
 H         6.9343710696       -2.1756326477       -1.1088844164
 H         4.7239054676        1.7018454653       -5.1842261254
 H         4.0745107857       -0.0495884332       -5.2699280621
 H         7.6391382317        0.0741220792       -2.0242025201
 H         6.2461102754        0.6506775156       -0.8279143171
 H         6.8579120487        1.4750282609       -2.4207879854
 H         6.9234186660       -0.0488083002       -4.4634959311
 H         7.0838957979       -1.6804413452       -3.7486203774
 H         5.7522660376       -1.2994798488       -4.7750171288
 H         2.0650477402        0.6473162123       -4.0793386285
 H         2.4419358159        2.2793260931       -4.2854063647
 H        -2.6422248480        1.3835729778       -5.3809424336
 H        -2.1685125425        1.9732742256       -7.0001218143
 H        -2.7134673835        0.3045892742       -6.6446682213
 H         0.9008416290        3.8216250938       -5.4339359430
 H        -0.0275960643        2.8550340180       -4.2396308038
 H        -0.8914732196        3.5541475604       -5.5546566535
 H        -0.5860961765        3.1884978409       -7.7792776676
 H         1.0076633964        2.4285574577       -8.2818136930
 H        -0.3790769057        1.4059673126       -8.2334816708
 Na       -2.6298881402        1.6987646141        1.0753697568
