155

 C        -3.3110755222        3.5029995531        5.1370039611
 C        -3.3316542002        2.4433358097        4.0695684877
 C        -4.3033123925        1.1400288133        4.2633235241
 C        -5.2534343370        1.0677017001        3.0533618171
 C        -6.7330732244        0.9686612425        3.3759200739
 C        -3.3331809954       -0.1180598815        4.0383002692
 C        -4.8658555217        1.1841431299        5.7406841749
 O        -2.5512412729        2.5782776771        3.1571302971
 O        -4.8191766345        0.7549113452        1.9607201214
 C        -7.5471676126        0.7794694020        2.0796272454
 C        -8.1608867444        2.1616357268        1.6498007686
 C        -8.5461204197        2.5230106662        0.2067986938
 C        -7.3642730797        2.9263658543       -0.8059210370
 C        -6.6417196752        4.2376699252       -0.5361039115
 O        -8.3956618057        3.0162834233        2.5725594103
 O        -7.2093120780        2.3928535782       -1.8631719118
 C        -9.4271669947        1.4122195344       -0.2943161707
 C        -9.3921561449        3.8552260402        0.2977123594
 C        -5.3938875312        4.5236860706       -1.3758224917
 C        -4.2017624991        3.8735452786       -0.7366504624
 C        -2.7917662223        4.2555297097       -1.1061138744
 C        -1.9892955422        2.8934044492       -1.2667700296
 C        -2.3508575172        1.9007468627       -2.4584179597
 C        -2.6760787002        4.9871478856       -2.4597328559
 C        -2.1950763874        5.1046041683        0.0314373008
 O        -4.4139972762        2.9976799785        0.1416453915
 O        -1.0538446330        2.5081818995       -0.5743101781
 C        -1.4946777872        0.5874713724       -2.4350308453
 C        -1.6975271349       -0.2874638464       -1.2744712121
 C        -0.2939191704       -0.9657159917       -0.6991678725
 C        -0.0407663276       -0.3753312245        0.6258223628
 C         1.3695698967       -0.6698903635        1.3431495527
 O        -2.7792094542       -0.4712002996       -0.7371598372
 O        -0.8732903384        0.2387101935        1.2990036590
 C        -0.6200344401       -2.5432121738       -0.4736239505
 C         0.8787290362       -0.8707515317       -1.7788994825
 C         1.1910357380       -0.8481062907        2.8303662257
 C         0.4529382583       -2.0872931952        3.3442617953
 C         0.9617349533       -2.6485140467        4.7244866274
 C         2.3508006246       -3.2416022466        4.4082180671
 C         2.3560427663       -4.6688297636        3.7315396395
 C         1.0281146753       -1.4900821824        5.6967032679
 C         0.0208053748       -3.7814923356        5.2794522004
 O        -0.3436804539       -2.7506316748        2.7576929456
 O         3.2830581863       -2.5020585447        4.5725764616
 C         3.7948351596       -5.0534178746        3.3763552086
 C         4.1123318634       -5.0371980254        1.8733123402
 C         5.5416049188       -5.4248731521        1.2606569936
 C         6.1055472235       -4.3336390911        0.1880519791
 C         5.1188659030       -3.4202799064       -0.5461024161
 O         3.2282202080       -4.6716608105        1.0754897150
 O         7.3361893593       -4.2941881084        0.0451519408
 C         6.6431528544       -5.5748617656        2.3505756911
 C         5.3077381851       -6.8396379509        0.5856130737
 C         5.8361726074       -2.1730729927       -1.1854970156
 C         4.9153942487       -1.2601194623       -1.8768965126
 C         5.3965202528       -0.0961665156       -2.7408786121
 C         4.1479505731        0.7939116915       -3.0408162692
 C         3.5553522673        0.5618843126       -4.4424254363
 C         6.4674092651        0.8281106541       -1.9005661181
 C         6.1368055813       -0.7268341005       -4.0430380643
 O         3.7351719415       -1.6829003924       -1.9659677722
 O         3.5951458070        1.4535484350       -2.1979168795
 C         2.5397078829        1.6495590505       -4.7765900730
 C         2.1482721330        1.5542954190       -6.2841375039
 C         0.6472343942        1.8270468735       -6.7672080504
 C        -0.0784457446        0.4325475500       -6.3663167888
 C        -1.0641575026       -0.3167441104       -7.2225552512
 O         3.0198087158        1.3304440839       -7.1120208724
 O         0.1072727410        0.0927363758       -5.2614945266
 C        -0.0083846025        2.9045014043       -5.8504297304
 C         0.5527612217        2.3078914902       -8.2396112791
 H        -2.4445099000        4.1969331154        5.0006416475
 H        -4.1730690186        4.2248728944        4.9841091696
 H        -3.2104494236        3.0965199508        6.1373951586
 H        -6.8378916092        0.0778398681        3.9524262275
 H        -7.1424333962        1.8349345021        3.9325400403
 H        -2.8824760723       -0.3979752874        4.9676050318
 H        -2.5438203629        0.1405684674        3.2868344823
 H        -3.8832433282       -1.0366012577        3.7341534063
 H        -5.5736623066        2.0415794271        5.8349750267
 H        -5.3304558742        0.2378604530        5.9160587365
 H        -4.1229675225        1.4153214054        6.4652621450
 H        -6.7838593863        0.3608169227        1.2616606920
 H        -8.4366413196        0.1575817464        2.2233539201
 H        -7.2886345654        5.1026257217       -0.5249952633
 H        -6.2892238067        4.3438326550        0.5137635303
 H        -8.8947901061        0.4731064263       -0.1659220746
 H        -9.8543342211        1.5010799504       -1.3598409028
 H       -10.3841516868        1.3899383422        0.1904510032
 H       -10.2371302051        3.7183518897        0.8337910835
 H        -8.9038721468        4.5865591741        0.8665045506
 H        -9.6698647916        4.2203371254       -0.6948939247
 H        -5.2693107403        5.5635934508       -1.5064481853
 H        -5.4557006324        4.1858572980       -2.3969172707
 H        -3.3656192909        1.6095157612       -2.4974841659
 H        -2.0935388084        2.3683463512       -3.4219498501
 H        -2.9887917503        4.3948495335       -3.3727545352
 H        -1.6023921807        5.3904993155       -2.5458333063
 H        -3.3234523091        5.9397147395       -2.4535331440
 H        -2.6888505804        6.0959620792       -0.0281706888
 H        -2.3990771901        4.6131614387        0.9287679496
 H        -1.0830731939        5.1195337014       -0.0616522827
 H        -1.6645387803       -0.0957854907       -3.2677494870
 H        -0.5545246172        1.0434773604       -2.5988677648
 H         1.9250264901       -1.4529473860        0.8649356807
 H         1.9411860798        0.2350368222        1.0484771617
 H        -0.6867621604       -3.0414707756       -1.4960267736
 H        -1.5402204376       -2.6543309046        0.1535091292
 H         0.2509488827       -3.0060822044        0.1690221607
 H         1.8311553273       -1.2061670812       -1.4445168025
 H         0.6298109178       -1.3492707113       -2.7352698268
 H         1.1795902505        0.2178629137       -2.0520521892
 H         0.5263526462       -0.1334391830        3.2292759463
 H         2.2115010780       -0.7736758738        3.2680912414
 H         2.0092750914       -5.3958533600        4.4636762872
 H         1.7805693919       -4.8617490536        2.8472262890
 H         0.4582177396       -0.6096282233        5.3568402685
 H         2.1224942085       -1.1555694539        5.8083055325
 H         0.6733869029       -1.8091418792        6.6498804798
 H        -0.1670258212       -4.5545538383        4.5198350504
 H         0.4483384971       -4.2470421298        6.1879577808
 H        -0.8496035122       -3.2030000157        5.6280609116
 H         4.4096532181       -4.4689148573        3.9725249864
 H         3.9527440469       -6.0785484527        3.6747299470
 H         4.7067917953       -4.0159588448       -1.3672382151
 H         4.3279953775       -3.1196299035        0.1985489422
 H         6.6805392256       -4.6352308089        3.0705786438
 H         7.6849797248       -5.7744673438        1.9445054807
 H         6.4455744192       -6.4026331325        3.0908646346
 H         4.9661165610       -7.5337021209        1.3648797962
 H         4.5027458570       -6.6456240828       -0.1518811398
 H         6.2279031873       -7.1828729239        0.1419003234
 H         6.5974421662       -2.4603376710       -1.9084257061
 H         6.3747283272       -1.6916467783       -0.3292380596
 H         4.2355580110        0.4575579843       -5.3431676465
 H         2.9929813491       -0.4002914239       -4.4989968613
 H         7.4325185813        0.1616566558       -1.7398801066
 H         6.1095447625        1.2341811012       -0.9142452436
 H         6.6498322257        1.6310355459       -2.5911547453
 H         6.3902392539        0.0971517090       -4.7096946793
 H         7.0954560127       -1.1427544975       -3.7844798231
 H         5.5235608943       -1.3804953552       -4.5945043761
 H         1.6489052821        1.5350782236       -4.1467997813
 H         2.9302308955        2.6839622969       -4.7171404706
 H        -1.1431935132       -1.3661167225       -6.8526097691
 H        -2.0374643239        0.1410038385       -7.2118371069
 H        -0.7492768114       -0.4346184370       -8.2682542937
 H         0.5737718632        3.9020665297       -5.6924765331
 H        -0.0581680063        2.7082563402       -4.7063467657
 H        -0.9771065198        3.0616237436       -6.2520353141
 H        -0.3898187233        2.1938074252       -8.6801716062
 H         0.9649912590        3.3305206634       -8.1418638191
 H         1.3012274581        1.7413886382       -8.9059322485
 Na       -2.8132329683        1.5128669330        0.9693604784
