155

 C         4.4864642425       -0.4680894216       -4.8993395731
 C         3.0622495740       -0.2329711884       -4.3429363617
 C         1.9683536336        0.5422748944       -5.3200563692
 C         0.7484700713       -0.4534421862       -5.5862084848
 C         0.4980832754       -0.9639139281       -7.0294185857
 C         1.5110064444        1.6934359152       -4.3882542315
 C         2.4856264632        1.1594543680       -6.6070563728
 O         2.8783337944       -0.5834714650       -3.1993810409
 O         0.0676214078       -0.8497436226       -4.6499963763
 C         0.2786724550       -2.4985121842       -7.0651305261
 C         1.6731601109       -3.1006616507       -6.6650997403
 C         1.8658315885       -4.6752620952       -6.6076622064
 C         0.8019191451       -5.3663131135       -5.6600876988
 C         1.1830995768       -5.6715108909       -4.1796073048
 O         2.6012475432       -2.3389442515       -6.4215644899
 O        -0.3180846142       -5.5482853220       -6.1450944105
 C         1.6424907592       -5.2441852796       -8.0242805400
 C         3.2566504073       -4.8757140228       -6.0716103887
 C        -0.0089213090       -5.5259148402       -3.2407050189
 C        -0.2070409747       -4.1288405605       -2.6740941871
 C        -1.5118061786       -3.6085152925       -2.0408871044
 C        -1.1732817142       -2.7582009890       -0.7185094978
 C        -2.3417184815       -2.2520252282        0.0364801737
 C        -2.2811753138       -2.4637489151       -2.8980266065
 C        -2.4994038774       -4.7022649818       -1.6055310645
 O         0.7634200973       -3.3818734149       -2.7724122604
 O        -0.0660235460       -2.6450410239       -0.3173368095
 C        -2.0365082933       -0.8644097417        0.6299589254
 C        -1.4371570201        0.1813071337       -0.4218659194
 C        -0.6245363335        1.3624066238        0.1000166792
 C         0.8289637343        0.8091891293        0.2930994747
 C         1.5823941870        1.3324416893        1.5509781458
 O        -1.5005647718       -0.0736324406       -1.6011998145
 O         1.5098993622        0.3023570322       -0.6155670411
 C        -0.4525134386        2.4833734918       -0.8733318680
 C        -1.3656608355        1.9583295522        1.3908749157
 C         3.1027467167        1.2000856537        1.4354517440
 C         3.7107365170        2.3613683380        0.5226394692
 C         4.2581694936        3.6404462858        1.1831375995
 C         3.0237303015        4.1448685402        2.0179644990
 C         2.8491169780        3.9275257496        3.4823609119
 C         5.4799450620        3.1938485543        2.0573521432
 C         4.5484099463        4.7110563923        0.1236533978
 O         3.8182133827        2.1884641109       -0.6541433063
 O         2.1013729602        4.6812232190        1.4459221149
 C         1.4318669927        4.4565196477        3.9236596147
 C         1.2817055601        4.4285819531        5.4925457741
 C         0.1476068749        5.1504000913        6.2582629802
 C        -1.2023348517        4.4891741250        6.1075171483
 C        -1.1844301847        2.9164361148        5.9978237085
 O         2.2732097887        4.0003509695        6.0783783192
 O        -2.2194014773        5.1103367775        6.1806318486
 C         0.6703772577        5.0768470803        7.7605755139
 C        -0.0403824336        6.5942588146        5.6797980711
 C        -2.5644509557        2.3104562273        6.3013464707
 C        -2.9520251153        1.0605716952        5.4145098471
 C        -4.0463465284        0.1024106505        5.9716958274
 C        -5.1527721127        0.3294158833        4.8773732898
 C        -5.0947601164       -0.6637698067        3.6084793555
 C        -3.3700377054       -1.2429332451        6.0368711902
 C        -4.6587153742        0.5533283583        7.3598684451
 O        -2.5572080491        0.9074471772        4.2901447662
 O        -5.9911763308        1.1927566608        4.8532357803
 C        -6.2628560961       -0.3651528990        2.6374594155
 C        -5.6942030095        0.1240686050        1.3057238911
 C        -6.4719668684       -0.1754398820       -0.0680422402
 C        -5.8400131924       -1.3437720013       -0.8567060884
 C        -5.9807775575       -1.2934160538       -2.3535168673
 O        -4.7994722565        0.9040378054        1.2572603676
 O        -5.2693586321       -2.2395080281       -0.2260592279
 C        -7.9435009187       -0.7037594736        0.2050514967
 C        -6.5206933513        1.1449168474       -0.7964965730
 H         4.4520535788       -0.9118119504       -5.8984590006
 H         5.0618042506        0.4940811464       -4.8754126255
 H         5.0283442135       -1.0672154270       -4.2129400026
 H        -0.4393226817       -0.4760101031       -7.3100347338
 H         1.2867564185       -0.7000402560       -7.7289936339
 H         0.8533025689        1.2607531610       -3.6303761164
 H         0.9887157042        2.3989390435       -5.0861016029
 H         2.3185127920        2.1490181943       -3.7750350941
 H         2.8700897877        0.3945363964       -7.2275179059
 H         1.5784030542        1.4933339302       -7.2344626750
 H         3.0962738336        1.9902344466       -6.4652845717
 H        -0.4588447560       -2.8778955291       -6.3634605239
 H         0.0489034885       -2.8464940179       -8.0369765410
 H         1.5812030008       -6.7154866018       -4.1674486962
 H         1.9688212510       -5.0920400086       -3.7369935360
 H         2.4740388783       -4.9277515920       -8.6646079979
 H         0.7219423838       -4.8946365665       -8.3887747284
 H         1.6661177591       -6.3250307747       -7.9430873054
 H         3.2622798017       -5.9344715339       -5.8281872414
 H         4.0028625954       -4.5050474295       -6.8205888693
 H         3.3972312389       -4.1746561212       -5.2044013805
 H         0.2056754102       -6.2495492992       -2.5041883641
 H        -0.9089386539       -5.6556591313       -3.8325563498
 H        -3.1705630113       -2.3361659174       -0.5986943037
 H        -2.5455583985       -2.9804702619        0.8444785804
 H        -1.5979980848       -1.7616056342       -3.4184593106
 H        -3.0108172810       -2.0727633181       -2.1695153439
 H        -2.7607313976       -2.9470560331       -3.6926963205
 H        -2.8087914451       -5.3597896342       -2.4437761515
 H        -1.9679672658       -5.4024095694       -0.8759961714
 H        -3.3988737501       -4.3403801745       -1.0689323443
 H        -3.0117339515       -0.5133057736        0.8905648480
 H        -1.5177742813       -1.0662759315        1.5619225147
 H         1.2977758394        2.3534729710        1.5774494106
 H         1.3675503475        0.7217438912        2.3663189744
 H         0.2194551717        3.3673476217       -0.5639802853
 H        -1.4832115229        2.8277829880       -1.0806173900
 H        -0.0234625292        2.0047213866       -1.8150894273
 H        -0.7728679564        2.7061786342        1.9196322208
 H        -2.4123681314        2.2664444866        1.1663121549
 H        -1.5659348960        1.1704717526        2.0720234750
 H         3.2404213763        0.1880004563        1.0041030910
 H         3.3528054436        1.3302076436        2.4268642270
 H         2.9868660604        2.8672861709        3.6106514630
 H         3.5978622851        4.4758969926        4.0831850390
 H         5.9975350024        4.0724901489        2.4994996974
 H         6.2445833514        2.5813029299        1.4543069944
 H         5.0896290744        2.4778647287        2.7642886810
 H         5.3157949872        4.4614068259       -0.6489027125
 H         3.6570102331        4.8730630003       -0.4923263807
 H         4.7925943772        5.6448398917        0.5606397167
 H         1.2561015210        5.4618177236        3.5604488962
 H         0.6466670959        3.8058567302        3.4013350206
 H        -1.0615874279        2.4542334057        4.9068891632
 H        -0.3972384179        2.5010621084        6.6017743632
 H         1.6922825614        5.4151913926        7.6310772488
 H         0.6299923494        4.0991553405        8.2676094776
 H         0.0330310290        5.8442321077        8.2661576730
 H        -0.3164676641        6.7506893592        4.6540808898
 H        -0.9777533283        7.0044920708        6.2552710572
 H         0.7775349726        7.2314229454        5.9379770346
 H        -3.3782042183        2.9970314227        6.0870740158
 H        -2.5563676443        2.0228028412        7.2994160192
 H        -4.1215253003       -0.4230709655        3.0734137286
 H        -5.1835292409       -1.7711526661        3.8246337414
 H        -2.6729255900       -1.3186404289        6.8211726839
 H        -2.8048646920       -1.3962217418        5.0776198032
 H        -4.0604727599       -2.0087427930        6.2272215428
 H        -5.1173482457        1.6046582038        7.2622736391
 H        -5.4843003603       -0.0974582881        7.7172789605
 H        -3.8439402064        0.4783270533        8.1029053740
 H        -6.7744155081       -1.2785382204        2.5389653291
 H        -6.9225560304        0.2752620144        3.1315916458
 H        -5.3086736776       -0.4893825697       -2.6185287991
 H        -5.7107717487       -2.2429916730       -2.8620575437
 H        -6.9142615711       -0.9146102356       -2.5974936292
 H        -7.8538794933       -1.6508137972        0.7760612199
 H        -8.4190833617       -1.0568405909       -0.6771240764
 H        -8.5712342893       -0.0262286973        0.7728470642
 H        -6.9913594457        1.2930612069       -1.7831346804
 H        -7.0723124700        1.8531938224       -0.2052581746
 H        -5.4657433878        1.5485504380       -0.9408743081
 Na        0.5366452747       -1.0596771753       -2.2260450426
