155

 C         0.1376352729        3.5395995055       -2.1267108235
 C        -0.5629051466        3.0600889001       -0.8484974655
 C        -1.5415839513        4.1429643331       -0.1405974592
 C        -2.9366952927        3.5231646588       -0.3876684986
 C        -4.1670928421        4.4560788684       -0.8285626221
 C        -1.5736299846        4.0772055997        1.3874930121
 C        -1.4874603318        5.5699422235       -0.7517114921
 O        -0.4063358140        1.9142188141       -0.4356145964
 O        -3.1389834000        2.4193682993        0.0714820535
 C        -5.5053210463        3.8076752028       -0.7689754232
 C        -6.2127171919        4.0296593190        0.5766930176
 C        -7.4150034307        3.1777219335        0.9494238007
 C        -6.9251103728        2.1361934171        2.0003098428
 C        -6.1255124440        2.7135488963        3.1451050529
 O        -5.7284362691        4.8413235802        1.3194214523
 O        -7.0718084418        0.9556098459        1.8903584161
 C        -8.3815280923        4.1981023071        1.6040865408
 C        -8.1213196742        2.5091295163       -0.2326383362
 C        -5.5175039817        1.4957865805        4.0367970807
 C        -4.0856224107        1.0860916878        3.5819311085
 C        -2.9327957599        1.2154338640        4.7024171034
 C        -1.5350907503        0.4790978665        4.1877670219
 C        -0.4359554546        0.5158773426        5.2794737312
 C        -2.5398394660        2.7016112213        4.8129173061
 C        -3.2586826732        0.6525164077        6.1188340873
 O        -3.8252090885        0.8072230014        2.4429007438
 O        -1.3002994751        0.0600551148        3.0824162174
 C         0.8713671043       -0.2238872865        4.9740081128
 C         2.0942469419        0.3247533961        5.6788223544
 C         3.4407618409       -0.4699333940        5.5960763607
 C         3.8783064933       -0.8446730669        4.0714657389
 C         5.2226157723       -1.4750598209        3.9729973322
 O         2.0825295048        1.3005675313        6.3662845196
 O         3.0511637748       -0.8603065856        3.1990315829
 C         4.5589541943        0.3592861164        6.2698340314
 C         3.2536536500       -1.7660586200        6.3258136461
 C         6.0051533994       -1.0458509007        2.6675226534
 C         6.1185533860        0.4678979296        2.5038073313
 C         6.2889683124        1.1771003084        1.0872185877
 C         6.2070788574        0.2016149078       -0.1028466413
 C         4.8159858594       -0.0012754439       -0.7776034165
 C         5.0918465033        2.2381631457        1.0824673819
 C         7.7649197752        1.8515563226        1.0872453681
 O         6.2044908768        1.2474684949        3.5170421764
 O         7.2566042718       -0.3360817966       -0.4024103948
 C         4.9442077723       -1.0344614876       -1.9606340269
 C         4.6329718206       -0.4293522631       -3.3136380747
 C         4.6815942728       -1.4311646536       -4.5444413759
 C         3.3244627204       -2.2317869272       -4.8138614261
 C         2.5085982345       -2.2030209344       -6.0745691038
 O         4.2080749653        0.7426423445       -3.4577512298
 O         2.9527458296       -2.8392953515       -3.8196462729
 C         5.1030189669       -0.4699934258       -5.6631497483
 C         5.8099076818       -2.4551937373       -4.3564898891
 C         1.7701316949       -3.5477688982       -6.3277129856
 C         0.3309727525       -3.1167302377       -6.5584919908
 C        -0.7052188403       -4.3318576535       -6.7197988602
 C        -1.1915241464       -4.7714400757       -5.3085893043
 C        -2.1391275672       -3.7313768111       -4.5237264341
 C        -1.8257512155       -4.0046028878       -7.7204959543
 C         0.0742850835       -5.4729305556       -7.4213825095
 O         0.0661449293       -1.9471822078       -6.6509907726
 O        -1.0129094622       -5.8698309282       -4.8621237002
 C        -2.6925173945       -4.4062856105       -3.3052645876
 C        -3.0742206083       -3.4843257212       -2.2036787016
 C        -2.7335483416       -3.7065971871       -0.7332703355
 C        -2.7070881090       -2.3253307856        0.1191714551
 C        -3.6707532284       -2.2210674498        1.3287709275
 O        -3.3848516426       -2.3072933457       -2.5631474135
 O        -1.9153072224       -1.5461489069       -0.2831678785
 C        -3.6413177923       -4.7346280354        0.0006500673
 C        -1.2903914397       -4.2987248994       -0.7213612720
 H         0.9338399654        4.2345920993       -1.7862616070
 H         0.4722808745        2.6360084914       -2.6398534105
 H        -0.4558685130        4.2034904786       -2.7691816200
 H        -4.1458738122        5.2863998586       -0.1181951865
 H        -4.0973684681        4.9256515753       -1.7803728395
 H        -0.6529025603        4.5124431630        1.8538102527
 H        -1.6554192161        3.0387728597        1.7348647244
 H        -2.5124806807        4.5909928810        1.6433801605
 H        -1.9006379150        5.8081526654       -1.7685633609
 H        -1.8851201097        6.3035874025       -0.0410843433
 H        -0.4743278795        5.8680222075       -0.9829632491
 H        -6.0350606623        4.3176024201       -1.5914007963
 H        -5.3749580190        2.7751660639       -1.0520227880
 H        -5.3445666827        3.3866339970        2.9054618331
 H        -6.9199252659        3.2603250135        3.7216384471
 H        -7.7552903005        4.7516564439        2.3356898292
 H        -9.2084486735        3.6260065679        2.1547028772
 H        -8.7154181320        4.9083059888        0.9006589392
 H        -9.1918744441        2.6902486581       -0.0898274866
 H        -7.8684425749        2.8288458127       -1.2412131146
 H        -8.2726307512        1.3897211392       -0.2395575373
 H        -6.2004593132        0.6280122746        3.8063054586
 H        -5.6293957990        1.6898770660        5.1398815003
 H        -0.1964144338        1.5883250781        5.4789872961
 H        -0.7755998687        0.0153345213        6.1903706783
 H        -3.4785511115        3.3631095848        4.7260906374
 H        -1.9549874444        2.9970925588        3.9546192371
 H        -1.9900108403        2.8595657913        5.7082852425
 H        -3.6828143435       -0.3222098063        5.9425022383
 H        -2.4283599804        0.4231440191        6.8179228894
 H        -4.0425184211        1.2216075636        6.5118469687
 H         0.8039491651       -1.2662437192        5.3708394423
 H         0.8677756443       -0.3220958506        3.8270478701
 H         5.7671962498       -1.2118577982        4.8925038420
 H         5.1122545266       -2.5163022747        3.8928198230
 H         5.2430161661        0.5984954999        5.5150249241
 H         5.0541237013       -0.2588669260        6.9863091810
 H         4.1771954153        1.2435245612        6.7002047419
 H         4.0960987666       -2.4032895324        6.4785294789
 H         2.7815849188       -1.5859291886        7.2978853015
 H         2.6315379952       -2.2642010368        5.6837206260
 H         5.7246185464       -1.5366731865        1.7785928888
 H         7.0745298801       -1.3423427334        2.9506016781
 H         4.1886361498       -0.2533087365        0.1232258547
 H         4.3904605430        0.9100629980       -1.1865576108
 H         5.4470913428        3.2103375313        1.4988667277
 H         4.3344678923        1.9720314261        1.8957455551
 H         4.5507859291        2.4260742617        0.1295943549
 H         7.9061874899        2.3444609768        0.1129900315
 H         7.8600462562        2.5378108011        1.9624971032
 H         8.4176192698        1.0078941361        1.0289862882
 H         5.9684952473       -1.5239380321       -2.0786513587
 H         4.0977396214       -1.7921795001       -1.9502344086
 H         1.7636582858       -1.4355054487       -5.8810110071
 H         3.1212825170       -2.0163553586       -6.9829320632
 H         5.4854470198       -0.9114129321       -6.6172407987
 H         5.8638411445        0.1179053015       -5.2192501614
 H         4.2854206269        0.1924928679       -5.9073604755
 H         5.5962747020       -3.0570477329       -3.4775483489
 H         5.7596401481       -3.2345591919       -5.1564094558
 H         6.7431008381       -1.9843856921       -4.2377020688
 H         1.8531617840       -4.2050581360       -5.4710941201
 H         2.1943886800       -4.0592946150       -7.2224288701
 H        -1.4186776703       -2.9539995377       -4.2756349224
 H        -2.7403183909       -3.2711457577       -5.3781014729
 H        -2.5742925147       -3.2174567526       -7.4318150746
 H        -2.3610559217       -4.8928123684       -8.1173262577
 H        -1.3278352331       -3.5925844073       -8.5585337890
 H        -0.6099773432       -6.3184713921       -7.4678653360
 H         0.4948267540       -5.1312826902       -8.4641602080
 H         0.9281984107       -5.8737352845       -6.8675890320
 H        -3.6038078699       -4.9456631044       -3.6358195385
 H        -1.9512548402       -5.1860003599       -3.0234786116
 H        -3.5272319672       -1.2895766489        1.9707029138
 H        -4.6786312783       -2.2822786452        0.9406244617
 H        -3.5705153398       -2.9963996660        2.0981744675
 H        -4.6374163482       -4.3483862816       -0.0732224438
 H        -3.3453088641       -4.9478749799        1.0991820413
 H        -3.5813939688       -5.7180012082       -0.4735718784
 H        -0.7314776764       -4.2544271849        0.2046173635
 H        -1.3780402090       -5.3202076899       -1.0367082945
 H        -0.5922145981       -3.7794715382       -1.3925218631
 Na       -1.8853125426        0.4423095646        0.7772389993
