155

 C        -0.0130480229        3.5210363452       -1.8609514578
 C        -0.8936600562        3.0852056844       -0.7327179522
 C        -1.9993082338        4.0922084234       -0.1111037776
 C        -3.4291075125        3.4730145514       -0.5073859632
 C        -4.4042228085        4.3712216955       -1.2757749883
 C        -1.9374536436        4.0494523358        1.4159155951
 C        -1.8089097852        5.5181700706       -0.5672746764
 O        -0.9727034764        1.9148271113       -0.4799959924
 O        -3.7426294592        2.2977246912       -0.3082173055
 C        -5.9069976564        3.8656177630       -1.0544765020
 C        -6.4478228053        4.0778594306        0.3596488502
 C        -7.5846440828        3.0701868313        0.8703213829
 C        -6.8373541978        2.1147720051        2.0111490476
 C        -6.3609613323        2.7957462770        3.3456332878
 O        -5.9803258040        4.8737735281        1.1820496842
 O        -6.6855283354        0.9216520223        1.8202030623
 C        -8.7440914134        3.7819080404        1.5613611080
 C        -8.1898834085        2.3290521604       -0.3750793301
 C        -5.6507822119        1.6958589977        4.3205129611
 C        -4.2522860977        1.2770787452        3.7565623985
 C        -3.1295422472        0.8379506964        4.7798762641
 C        -1.6878646933        0.6282925715        4.1963216955
 C        -0.5531170871        0.4190991325        5.2802832907
 C        -3.0170864937        2.0338086985        5.8510713415
 C        -3.6164497065       -0.4273837740        5.5453583897
 O        -3.9840375359        1.3624920837        2.5849471868
 O        -1.3837828812        0.7987652863        2.9992240027
 C         0.6255656778       -0.2330931761        4.6635348343
 C         2.0081883314        0.1819604710        5.3211919237
 C         3.2166156589       -0.9207341419        5.4125024495
 C         4.0401206958       -0.9804755750        4.1361477659
 C         5.5357723888       -1.1837028492        4.1145771919
 O         2.1584663772        1.3415835615        5.6468510157
 O         3.3665878515       -0.7816326059        3.1129064222
 C         4.0661832118       -0.3923205933        6.6554063698
 C         2.5374435906       -2.3532663617        5.8089864363
 C         6.2687050591       -0.8857004078        2.8082630156
 C         6.5929054069        0.5643122082        2.6758044015
 C         6.9110099275        1.2286128773        1.2505797764
 C         6.6272620436        0.1760796988        0.1196829952
 C         5.8015285220        0.4803010107       -1.1536217136
 C         6.1631111528        2.6682460555        1.2260881767
 C         8.4954162557        1.3486156883        1.1341407159
 O         6.4967353616        1.2141558444        3.6895302115
 O         7.1233446767       -0.9415772134        0.1566472924
 C         5.7015990445       -0.5903812404       -2.2644810844
 C         4.7945632950       -0.0881353684       -3.4418383488
 C         4.9593216723       -0.8888459453       -4.8102086135
 C         3.7658058507       -2.0127493326       -4.7397456351
 C         2.4510550365       -1.9740391078       -5.6169590673
 O         4.1384860921        0.8948539543       -3.3995562640
 O         3.8248892620       -3.0056445481       -4.0560337444
 C         4.6409672386        0.0978234947       -5.9801828518
 C         6.3510237069       -1.5949594517       -4.9893436031
 C         1.8509807610       -3.3091260013       -5.7624476822
 C         0.5492213223       -3.1498775581       -6.4922727338
 C        -0.3651476643       -4.4380923898       -6.6170107564
 C        -0.7548889505       -4.7869644763       -5.0279038665
 C        -1.6779925119       -4.0339453796       -4.1557277761
 C        -1.6467061052       -4.1658376762       -7.4133350235
 C         0.5571667160       -5.5110239958       -7.2108039901
 O         0.1733890625       -2.0696720407       -6.9647009814
 O        -0.0646047894       -5.6770291505       -4.5877673493
 C        -2.2580982680       -4.7886507330       -2.9745414493
 C        -2.9688594773       -3.7317008622       -2.0519246107
 C        -2.6915594997       -3.6118133542       -0.5032179004
 C        -3.3424698128       -2.2744010445       -0.1089540704
 C        -4.7828732063       -2.2569018148       -0.1643069425
 O        -3.6907734693       -2.9435233565       -2.5854484205
 O        -2.6342318998       -1.3222879682        0.1286582159
 C        -3.2943248984       -5.0150408277        0.0637303395
 C        -1.1388840947       -3.6927233077       -0.2062436022
 H         0.7767207859        4.1800093433       -1.6258816334
 H         0.4568872299        2.6785220597       -2.2584661206
 H        -0.7674017860        3.9395311900       -2.5892529535
 H        -4.1504024084        5.4651883384       -1.0066683803
 H        -4.0520934564        4.2342529004       -2.3227715024
 H        -1.1883931135        4.7786561145        1.7481757886
 H        -1.8530656371        3.0626682047        1.7644496277
 H        -2.8426191911        4.4589025471        1.8060078297
 H        -1.8921063048        5.5690201592       -1.6183741980
 H        -2.5048315606        6.2477541769       -0.1627389740
 H        -0.8174593592        5.7786291294       -0.1992632077
 H        -6.4022372700        4.5197973217       -1.7938595829
 H        -5.9591180858        2.8311226565       -1.4168195615
 H        -5.7258242869        3.5943123072        3.0741364009
 H        -7.2542586251        3.2124550114        3.8315935562
 H        -8.3293254097        4.1765801493        2.4397104628
 H        -9.4730596315        3.0370906103        1.7899873359
 H        -9.2485272741        4.4925813621        0.9126227278
 H        -8.4429437575        3.0267755685       -1.1687004642
 H        -7.5800033868        1.6162203490       -0.8432486905
 H        -9.0609321416        1.7021041240       -0.1231907153
 H        -6.2856935053        0.6960771818        4.3299030676
 H        -5.5980347410        2.0980335062        5.3265387313
 H        -0.2183716041        1.3854497485        5.6181334512
 H        -0.9406398543       -0.1448796050        6.1726029412
 H        -4.0275021007        2.4196861172        6.0824062759
 H        -2.3808778656        2.7803121310        5.3699523453
 H        -2.5983782334        1.7955532642        6.7991109707
 H        -3.7844243204       -1.2980577859        4.9441476268
 H        -3.0577762853       -0.4876655910        6.4978627157
 H        -4.5129218700       -0.1068875771        6.0223317766
 H         0.4715342805       -1.2667521816        4.4487794233
 H         0.7432928479        0.2421925165        3.6968348533
 H         5.9234376695       -0.5808081828        5.0126184795
 H         5.7174484186       -2.2502849544        4.3076519980
 H         4.5334238520        0.5523925295        6.3551109907
 H         4.7342342959       -1.1697593144        7.1587752644
 H         3.2889290372       -0.1149706167        7.4047994791
 H         3.3490004420       -2.8702083419        6.3536741474
 H         1.5905802837       -2.2580560287        6.3760143748
 H         2.3101549549       -2.9104999092        4.7916494467
 H         5.6269841006       -1.0806815958        1.9685450151
 H         7.0202136738       -1.6645302701        2.5968090884
 H         4.7193266873        0.7233944006       -0.9087484134
 H         6.3136136401        1.3700494351       -1.5718132455
 H         5.2853923879        2.5029086118        1.7514713822
 H         6.0265452268        3.0299762662        0.2027278633
 H         6.7024057116        3.4214486268        1.7542826717
 H         8.6084304324        1.8402895967        0.1595447125
 H         8.8300996238        1.9995784458        1.9037012178
 H         9.0022970331        0.3726275058        1.2192812377
 H         6.6404672447       -0.7441953586       -2.7500949611
 H         5.3709565128       -1.5419323173       -1.9632684053
 H         1.8243569255       -1.2017211333       -5.1843776869
 H         2.6708895233       -1.5911246155       -6.6796835074
 H         4.3005641513       -0.3881238141       -6.8881479071
 H         5.5367987336        0.6250428656       -6.2531016863
 H         3.9514807940        0.9390317335       -5.7553601116
 H         6.6412859034       -2.1861622609       -4.1238522116
 H         6.5598959024       -2.0993704140       -5.9480196022
 H         7.0719413776       -0.7661515708       -4.9887373136
 H         1.6102463626       -3.6861113751       -4.8189938252
 H         2.4900526308       -3.9846515502       -6.3494468063
 H        -1.0667098184       -3.2153532686       -3.6806495289
 H        -2.5685551679       -3.6124050181       -4.7355378969
 H        -2.3317531489       -3.5098865480       -6.8879997913
 H        -2.1739119873       -5.0331078500       -7.7324808375
 H        -1.3088710982       -3.6037224511       -8.2855801114
 H         0.0758739455       -6.4581317631       -7.3107357607
 H         0.8550457683       -5.2623812116       -8.1460453361
 H         1.4103236276       -5.6466035475       -6.5742448868
 H        -3.0443498015       -5.4023612864       -3.1309634372
 H        -1.5384529064       -5.3725536364       -2.4102863931
 H        -5.1192255446       -1.5519538166        0.5015597011
 H        -5.0555159607       -2.0287659694       -1.2581845154
 H        -5.2127799989       -3.2166400900        0.0631999070
 H        -4.3791358695       -5.1130584789       -0.1225216161
 H        -3.0292280806       -5.1012254694        1.1076605581
 H        -2.8721132169       -5.7616923386       -0.5215317475
 H        -0.6474285560       -4.3677831523        0.4999502696
 H        -0.5749575054       -3.8138391389       -1.1382536322
 H        -0.7730710207       -2.6797609243       -0.0089590419
 Na       -2.5427938358        0.8631829273        0.8535819625
