155

 C         0.0574357260        3.2925905579       -1.3832314639
 C        -1.3473250398        3.0113321350       -0.7970254158
 C        -2.2724801057        4.2676845896       -0.5696999913
 C        -3.8871862799        3.6279215302       -0.9540807957
 C        -5.0230741368        4.5434819796       -1.3659980920
 C        -2.0322079629        4.5580853520        1.0069897200
 C        -2.0580190705        5.5053100698       -1.4221192214
 O        -1.5691845202        1.9901742276       -0.2042723654
 O        -4.0235294500        2.4083591975       -0.8150953866
 C        -6.3816711552        3.8197254460       -1.0476459613
 C        -6.4116313727        3.5816308405        0.4688311848
 C        -7.6366850772        2.6126174008        1.0821098839
 C        -6.9207530182        1.7705610801        2.2844618699
 C        -6.6299185370        2.6220724624        3.5556696115
 O        -5.5792149182        4.1251763101        1.1808774695
 O        -6.6022068949        0.6165096206        2.1879322689
 C        -8.7467592221        3.6332428073        1.5215538256
 C        -8.3195564163        1.7244162915       -0.0049033370
 C        -5.8219085913        1.7335378371        4.5355944204
 C        -4.4295581786        1.6005568569        3.9142634010
 C        -3.3678766886        0.5880331723        4.6501413063
 C        -1.7722821230        0.5764209464        4.0181369987
 C        -0.5263359207        0.5642156676        4.9687189955
 C        -3.3043555422        0.7785289212        6.1518822956
 C        -3.9229643332       -0.8314423088        4.2498237611
 O        -4.2335104198        2.1885119687        2.8908561292
 O        -1.6650684622        0.6701094405        2.8231272266
 C         0.7303516256        0.1958857182        4.3539925336
 C         1.7928416473        0.0460120382        5.4770897194
 C         2.8270808733       -1.1782684010        5.3213514950
 C         3.6400361297       -0.8326815115        4.0236973687
 C         5.1908496816       -0.9054262683        4.1646804404
 O         1.8526801877        0.8334407089        6.4114869315
 O         3.1237856778       -0.4204607048        3.0557843303
 C         3.7418314757       -1.2245457164        6.6142593106
 C         2.0104978226       -2.5563117719        5.1768044504
 C         5.9001722244       -0.6922711746        2.7653497539
 C         6.5430094353        0.6882590675        2.4526786184
 C         7.3974749912        0.9085028358        1.0942335037
 C         6.7835753248        0.1073202438       -0.0282396512
 C         6.3510083095        0.7880688561       -1.2279234071
 C         7.5088835531        2.4502599147        0.9627174980
 C         8.8130911369        0.4205303156        1.4718040795
 O         6.3449711311        1.5871184270        3.1912638435
 O         6.7077065765       -1.0825913963        0.0577512312
 C         6.1998270401       -0.1663520233       -2.4295234109
 C         5.2235772159        0.3212818491       -3.4466774933
 C         5.0280523352       -0.3801974506       -4.8453557245
 C         4.3600172478       -1.8633896300       -4.6819970655
 C         3.0340251084       -2.1568142717       -5.3763343800
 O         4.3737252471        1.1707335438       -3.2013932096
 O         5.0483911177       -2.6057728653       -4.0112565336
 C         4.1523107814        0.6296213351       -5.5665141930
 C         6.2765779961       -0.6751601711       -5.7200598402
 C         2.1580798208       -3.2733800790       -5.0490448233
 C         0.9370583410       -3.0797738676       -6.0314424754
 C         0.1648321771       -4.4481410295       -6.2470734429
 C        -0.2657286008       -5.0107840713       -4.8579997328
 C        -1.6168509739       -4.6293592134       -4.2547128281
 C        -1.0645540003       -4.2105827964       -7.2251268749
 C         0.9742685176       -5.5239833553       -6.9253698839
 O         0.6931783846       -2.0377905662       -6.5564338769
 O         0.5740144295       -5.6547083753       -4.2336632228
 C        -1.5410039248       -4.4324284779       -2.7634602464
 C        -2.7513124826       -3.7393944770       -2.0950664890
 C        -2.6380782271       -3.3201337098       -0.6366884801
 C        -3.4807725410       -2.0843447651       -0.2528048791
 C        -4.7304518918       -1.6699949406       -0.9641058606
 O        -3.6861918258       -3.3526487339       -2.7757117894
 O        -2.9709640853       -1.3347793820        0.6363971972
 C        -3.3851943197       -4.5785671227        0.1680720476
 C        -1.2738701117       -3.1975902496       -0.0502749370
 H         0.5544445848        4.0877558065       -0.8500582866
 H         0.6306364067        2.3113971187       -1.4591741334
 H        -0.0897200612        3.6159183964       -2.4271310995
 H        -4.8899241541        5.5152508411       -0.8082728560
 H        -4.8910887201        4.7603307990       -2.4430869065
 H        -1.1408926258        5.1795053664        1.0337092742
 H        -1.7048412356        3.6843143056        1.5907571448
 H        -2.9090631990        5.0835822539        1.3855309091
 H        -1.9218712088        5.1072217975       -2.3974927427
 H        -2.9310311170        6.1404947140       -1.2449268553
 H        -1.1016102196        6.0562710960       -1.1928210285
 H        -7.1851344768        4.4117883750       -1.4581267395
 H        -6.5271156402        2.8315256862       -1.4725621330
 H        -6.0279567448        3.4622447041        3.1720535763
 H        -7.5742896295        3.0453442002        3.9969304508
 H        -8.3660492567        4.1263352076        2.4726931350
 H        -9.6431512708        3.0365825072        1.5982849305
 H        -8.6504929766        4.4455177020        0.7421618903
 H        -9.0959296102        2.2341708531       -0.6492626019
 H        -7.4577708603        1.4115613855       -0.6370759998
 H        -8.8505375720        0.8850531334        0.4233040835
 H        -6.2317909961        0.7607505469        4.7572494860
 H        -5.7529912068        2.2154143068        5.4428866025
 H        -0.4160863282        1.3671495535        5.6509957593
 H        -0.7487471585       -0.2329311156        5.7458907866
 H        -4.1551933805        1.1866531093        6.5597643138
 H        -2.5510205776        1.5630918248        6.4640626602
 H        -3.0179151016       -0.1716654761        6.6542856570
 H        -3.9527133016       -0.8966525319        3.1379216262
 H        -3.1792552682       -1.5092709993        4.4661269414
 H        -4.9673960868       -0.9978061512        4.5733337424
 H         0.5951912178       -0.7948157602        3.9358877851
 H         1.0977943463        0.8516096748        3.5785868417
 H         5.5284000195       -0.0951732241        4.8386234725
 H         5.4796626904       -1.7873235101        4.6776346467
 H         3.9801377106       -0.2044133505        6.8901054226
 H         4.6424658240       -1.7501463825        6.5953286812
 H         3.1225304798       -1.5590209036        7.4134200144
 H         2.5986053613       -3.2560660056        5.7138741520
 H         1.0111279744       -2.6133473984        5.5381270674
 H         2.0878479909       -2.8900180113        4.1819663866
 H         5.2297320788       -0.9663670288        1.9012451814
 H         6.6908778694       -1.4042676877        2.6496650612
 H         5.3985461764        1.2695696874       -1.0290448098
 H         6.8854001071        1.6214091527       -1.6468598050
 H         6.5377814431        2.9419693238        0.6335021294
 H         8.1944937050        2.7406274310        0.2411886866
 H         7.7665435460        2.7368492283        2.0309558264
 H         9.6437961137        0.6798497366        0.7914053109
 H         8.9650940491        0.9068796507        2.4202497771
 H         8.7447046947       -0.7105194186        1.5175072863
 H         7.1767355990       -0.4383233109       -2.9252307599
 H         5.8438545080       -1.1275843534       -2.0792664044
 H         2.4143521752       -1.2928605685       -5.3306528978
 H         3.4606022552       -2.2284076234       -6.4089820493
 H         4.0848639792        0.3345602319       -6.5734248419
 H         4.5984190226        1.6283464474       -5.6857627270
 H         3.1065841090        0.7713312134       -5.2308911120
 H         6.8372452719       -1.5516497398       -5.4238253987
 H         6.0838180434       -0.8358261057       -6.7462382690
 H         6.9347004065        0.2239227733       -5.5914337944
 H         1.7804365323       -3.3332424871       -3.9978318216
 H         2.5310511804       -4.2947016824       -5.1900069275
 H        -1.9474281139       -3.8146367759       -4.8681546309
 H        -2.2528858844       -5.4659207507       -4.5677895960
 H        -1.6559567235       -3.3562507123       -6.9683890172
 H        -1.6473226303       -5.1105230188       -7.3219100548
 H        -0.6394684088       -4.0623012341       -8.2727721156
 H         0.3536903468       -6.4111403202       -7.2740179988
 H         1.6019520507       -5.0582416820       -7.7213613478
 H         1.6733462432       -5.9902027153       -6.1926875684
 H        -1.2503136077       -5.2871509254       -2.2650780549
 H        -0.6677799237       -3.7705426279       -2.6915298557
 H        -5.2639421496       -0.9020377197       -0.3206599846
 H        -4.4258102290       -1.0875965934       -1.7710143677
 H        -5.3586360692       -2.5062845562       -1.2712979381
 H        -4.4164129145       -4.6066719307       -0.3136668965
 H        -3.4490936373       -4.3992680291        1.2153867014
 H        -2.7575354110       -5.4484263173       -0.0333956049
 H        -1.2523501286       -3.3809331450        1.0172368551
 H        -0.5222623797       -3.8521781206       -0.4945345858
 H        -0.9063760942       -2.1753263170       -0.1529485306
 Na       -3.4312258300        0.9207714049        1.1540867856
