155

 C        -0.0772704170        3.2585512729       -1.6086751985
 C        -1.2701334284        2.9210766119       -0.7113805447
 C        -2.5415997385        4.0078637743       -0.7636551699
 C        -3.9824614151        3.4242567182       -0.8160611335
 C        -5.1370108303        4.3036252739       -1.2951581652
 C        -2.6049728241        4.8972903160        0.5495470141
 C        -2.3390039286        4.9930629023       -1.9919858258
 O        -1.2356635076        2.0616163632        0.1485198460
 O        -4.2118992039        2.2549883752       -0.4387275232
 C        -6.5129931716        3.9084184945       -0.8149882933
 C        -6.4698852737        3.5991322063        0.7063407500
 C        -7.5767472126        2.4938029428        1.2481447130
 C        -6.9617002249        1.6874270560        2.3875397561
 C        -6.6958706158        2.4585149054        3.7417926733
 O        -5.6706920411        4.1475662593        1.4053341294
 O        -6.5761804971        0.5358882227        2.2604168902
 C        -8.7993060763        3.3517471491        1.6598581447
 C        -8.1477998649        1.5922942380        0.0993435969
 C        -5.6508869676        1.8923068221        4.6674677846
 C        -4.3345640174        1.5699770827        3.9224737170
 C        -3.5423982244        0.3110150357        4.4390788158
 C        -1.9365088808        0.5374551640        4.0122461066
 C        -0.8575344154        0.3916485165        5.0000584639
 C        -3.7750827076        0.1127438926        5.9105123569
 C        -4.1621829530       -0.8898410600        3.6195417313
 O        -3.8530638091        2.3276161063        3.0971403653
 O        -1.6037009180        0.8168166965        2.9145195737
 C         0.5435928437        0.3819084042        4.3834111064
 C         1.5549970608        0.0116574832        5.4115340087
 C         2.5414488092       -1.1219992446        5.1855827525
 C         3.3965334843       -0.6006541249        3.8533035050
 C         4.9657901872       -0.5731045996        4.1252803821
 O         1.3546560542        0.4554070536        6.5376356773
 O         2.9532308040       -0.5324528999        2.7434899013
 C         3.4590736568       -1.2684444452        6.3711247324
 C         1.8934611356       -2.4042279791        4.7380173336
 C         5.7487459041       -0.5517604468        2.7328600079
 C         6.4239173994        0.6929566764        2.3949546146
 C         7.5524644487        0.6467518845        1.2286693609
 C         6.9688253096       -0.0208877730       -0.0551093236
 C         6.7465915329        0.7984645258       -1.3490302290
 C         8.0061414187        2.0938943587        1.0391474174
 C         8.7659688343       -0.2210123399        1.7774117085
 O         6.1000348185        1.8215892440        2.8535475561
 O         6.7206582292       -1.2185427307        0.0006718376
 C         6.1569708647       -0.1591822707       -2.4738125029
 C         5.2110187761        0.4992944491       -3.4493635307
 C         5.1201664282       -0.0121644230       -5.0030953879
 C         4.4513577946       -1.5088475505       -4.8261817326
 C         3.4223324588       -1.9726638702       -5.8639165767
 O         4.3534856519        1.2981403347       -3.0391451071
 O         4.7206802886       -2.1686845520       -3.8720622494
 C         4.3242403837        1.0498054185       -5.7837549298
 C         6.5233102446       -0.2423172163       -5.6615708009
 C         2.5333807955       -3.1224615479       -5.3490105173
 C         1.0758878127       -3.1622844448       -5.9009111702
 C         0.4646576371       -4.5791520465       -6.1335430035
 C         0.0820066539       -4.9212407746       -4.5882843436
 C        -1.2292112135       -4.2060962237       -4.1260859223
 C        -0.7071149831       -4.7350157383       -7.1443827427
 C         1.6128190068       -5.6388670027       -6.6060932161
 O         0.4084471227       -2.1964674292       -6.0123859112
 O         0.7311941834       -5.6348645160       -3.8815705252
 C        -1.1732349816       -3.9100662481       -2.6219389948
 C        -2.5162132538       -3.5353677187       -2.0362882320
 C        -2.7385380305       -3.3176859234       -0.5315306489
 C        -3.3473333662       -1.9296305958       -0.3740514550
 C        -4.6653720541       -1.6182342798       -1.0154450713
 O        -3.5811103156       -3.6681374824       -2.7267993086
 O        -2.8115385092       -1.0222064028        0.3372019213
 C        -3.9404697787       -4.2629957706       -0.1303890279
 C        -1.4653546378       -3.5056405838        0.3356498722
 H         0.1665014222        4.3200215929       -1.6709525749
 H         0.7380308112        2.5438813728       -1.2816691589
 H        -0.4111605853        3.0133642209       -2.5996213508
 H        -4.8903114864        5.2462464552       -0.7969676356
 H        -5.0838166364        4.3861466521       -2.3766213899
 H        -1.7631080559        4.8333934084        1.1759496939
 H        -3.4370836498        4.5134207528        1.1187803190
 H        -2.7416579353        5.9170284975        0.2333456063
 H        -2.2530784376        4.3130018224       -2.8285796343
 H        -3.3211323055        5.4350582720       -2.1376202622
 H        -1.5464902971        5.7828554167       -1.9683146242
 H        -7.3876773239        4.4962011674       -0.8926413172
 H        -6.8365626956        3.0138612688       -1.3223767899
 H        -6.5031277586        3.4766658496        3.3384844094
 H        -7.6877007497        2.4289711711        4.2514926286
 H        -8.4990478540        4.3297838579        2.0895410716
 H        -9.4416876463        2.6778713799        2.2965826879
 H        -9.2871919035        3.4911498033        0.7348269535
 H        -8.4828665318        2.3266430500       -0.6813814159
 H        -7.4268287436        0.8231083863       -0.2994725977
 H        -8.9498015445        1.0730253897        0.5686714114
 H        -5.9848180121        0.9280770913        4.9438552137
 H        -5.5732034762        2.3771055603        5.5851324417
 H        -0.9486667068        1.2670851436        5.6219095064
 H        -1.0071610653       -0.4279268539        5.7906638707
 H        -4.6595324345       -0.4207499744        6.0652685673
 H        -3.8485191804        1.0783786025        6.4521208201
 H        -3.0375988380       -0.5031191679        6.4757475294
 H        -3.8098461858       -0.8417009880        2.5830075104
 H        -3.9028907762       -1.7837504881        4.0814842080
 H        -5.2777493730       -0.8562845566        3.5648152210
 H         0.6550863952       -0.1520407050        3.4092595762
 H         0.8375731051        1.4343680525        4.1042119611
 H         5.1326630849        0.3030150276        4.7821430009
 H         5.3135853290       -1.4128282588        4.6959083586
 H         4.0866768540       -0.3373950362        6.5685433880
 H         4.1479070046       -2.1128709465        6.3404966222
 H         2.8459128518       -1.4631050572        7.2862940265
 H         2.6878733336       -2.9493806084        4.1674872759
 H         1.7685699054       -3.1693815766        5.5269986908
 H         1.1701570230       -2.2968546010        4.0335321555
 H         5.1321145995       -0.8829403014        1.8524873855
 H         6.5172148645       -1.2456421786        2.8603064623
 H         6.0628528104        1.6273198959       -1.3714560214
 H         7.6620548370        1.2937452341       -1.6975196259
 H         7.1139245833        2.8183661210        1.0116684428
 H         8.5700687908        2.1125600475        0.1377388650
 H         8.6180608963        2.4143595998        1.9233120933
 H         9.6012632092       -0.1169820048        1.0774380459
 H         9.0187305288        0.2030717100        2.7576671953
 H         8.5117882344       -1.2803507608        1.9846189875
 H         6.9905949022       -0.7025548908       -3.0953252616
 H         5.6564458441       -1.0345678258       -1.9302511144
 H         2.9137096213       -1.1351421008       -6.2358070168
 H         4.1085746575       -2.3194889245       -6.6320806335
 H         4.2451228377        0.8086194781       -6.8220595552
 H         4.7004196762        2.1059794500       -5.6686448274
 H         3.2530676107        1.0914500022       -5.5139346210
 H         6.8724616279       -1.2425598330       -5.3672247912
 H         6.5550471673       -0.1430434717       -6.7208090044
 H         7.2770623240        0.5462008893       -5.3024598056
 H         2.1655251739       -3.0172572343       -4.2620915493
 H         3.0873109680       -4.0294534685       -5.4205073456
 H        -1.4142923041       -3.4090391969       -4.8429078889
 H        -2.0508535131       -4.8807088086       -4.3459028617
 H        -1.4380363938       -3.9707149033       -7.0259774809
 H        -1.1459382899       -5.6917860792       -6.9252039054
 H        -0.3715577786       -4.6850439949       -8.2108711398
 H         1.1076249379       -6.5846995127       -6.6865792151
 H         1.9695810086       -5.3429992024       -7.6537852432
 H         2.4901097205       -5.7319723212       -6.0305153793
 H        -0.7193715723       -4.7374384582       -2.0822496434
 H        -0.5566530907       -3.0225469879       -2.4091064043
 H        -5.5553154421       -2.1597583263       -0.4479308995
 H        -4.8665955155       -0.6287202447       -0.7847824049
 H        -4.6994964389       -1.9667058133       -2.0577889198
 H        -4.8109600432       -3.9108004986       -0.6950859163
 H        -4.1725593368       -4.1955073026        0.9043248704
 H        -3.6208773095       -5.2849209949       -0.4287264963
 H        -1.5374393206       -2.6632386616        1.0184287875
 H        -1.5039584470       -4.4070709198        0.9432607621
 H        -0.4956785365       -3.3166698021       -0.0510536943
 Na       -2.9792313924        1.1536456557        1.1148775114
