155

 C        -0.5760789596        3.6092279806       -2.6197747324
 C        -1.5017964692        3.4097581869       -1.3858290342
 C        -2.8500855975        4.1658103581       -1.3714890394
 C        -4.1016768368        3.3224534880       -1.0583971351
 C        -5.4425548469        3.9476300558       -1.2153941599
 C        -2.6834688625        5.1438664179       -0.1648865425
 C        -3.0206608359        4.9128593213       -2.7320830582
 O        -1.1294593344        2.6295629043       -0.5231496398
 O        -3.8765104597        2.2131404312       -0.5464706896
 C        -6.6429829516        3.0202949424       -0.6377823967
 C        -7.0739229436        3.3955010564        0.8201322206
 C        -8.0960664672        2.4232363247        1.6008011938
 C        -7.1984257160        1.6769381553        2.5658179873
 C        -6.3621561915        2.5080509828        3.4936627721
 O        -6.7758589552        4.4835910595        1.2589581225
 O        -7.0974748528        0.4578795917        2.5335506651
 C        -9.1686678851        3.4249383753        2.3407256832
 C        -8.9583192902        1.5098465561        0.7226622995
 C        -5.3962081711        1.6471958034        4.3226320578
 C        -4.2955106081        0.7903128106        3.4265253646
 C        -3.5513726468       -0.3550349266        4.2313892588
 C        -2.0689196776        0.0381422115        4.0791157617
 C        -1.1525449973       -0.3841257516        5.1610869028
 C        -3.9374201376       -0.4278889172        5.7233492307
 C        -3.8860878827       -1.7644176874        3.4795966311
 O        -3.9869210631        1.0776290256        2.3234631110
 O        -1.6038414777        0.6072409669        3.1103886036
 C         0.2213615670        0.1946356787        4.9892173068
 C         1.4245538093       -0.3610695109        5.8070405534
 C         2.6104463393       -1.2133337979        5.0170155825
 C         2.8031192131       -0.4865654811        3.6698222206
 C         4.0473290030        0.3737789509        3.3979469459
 O         1.6909179151       -0.1792819191        6.9650605366
 O         2.0432124529       -0.6000945449        2.7575171325
 C         3.7523000554       -1.5652668683        5.9296281303
 C         1.6678221100       -2.4870089246        4.8028517875
 C         4.8994122137       -0.0525811346        2.2517698324
 C         6.1531394277        0.7716150562        2.0855465294
 C         7.4046658169        0.1248270171        1.3909596807
 C         7.0660959891       -0.4265748739       -0.0515569451
 C         6.4068508526        0.6047297454       -0.9967644392
 C         8.4433284706        1.2445892324        1.2753590441
 C         7.7579080861       -1.0556221065        2.2739197043
 O         6.1931764100        1.9521437362        2.4908439066
 O         7.1399345477       -1.6150018121       -0.3660509783
 C         6.0428430140        0.0253810047       -2.4543050003
 C         5.6536474508        1.0376053332       -3.4640755175
 C         5.2791402416        0.5360004566       -4.9054247880
 C         4.3435173614       -0.7731922862       -4.9203563757
 C         3.5641442441       -1.0497000003       -6.2185934039
 O         5.5041180771        2.2358103518       -3.2184210579
 O         4.2773040052       -1.4877734056       -3.9630509167
 C         4.5322287435        1.6813627401       -5.6081854657
 C         6.6008183524        0.1989058672       -5.6006370251
 C         3.1642677895       -2.5876698600       -6.4463096462
 C         1.8563197733       -3.0046895622       -5.6071883846
 C         1.5599980063       -4.5081518155       -5.1855065671
 C         0.7768218445       -4.6247431376       -3.7758066400
 C        -0.5745762012       -3.8836036990       -3.5992697051
 C         0.5964390649       -4.9508143495       -6.3294703598
 C         2.7444947581       -5.4600713748       -5.0644624843
 O         0.9871029880       -2.2229240314       -5.4808734970
 O         1.2154835953       -5.2714674422       -2.8478406557
 C        -1.0966773574       -4.2086695486       -2.1631883139
 C        -2.4275218325       -3.4912519492       -1.9858037181
 C        -3.0769611210       -3.3233672413       -0.4757376146
 C        -3.2364232753       -1.7306848151       -0.2860917911
 C        -4.1779072549       -0.8988749389       -1.1811172833
 O        -3.0503654248       -2.9118297749       -2.9303063185
 O        -2.4271382669       -1.2080142498        0.5245628842
 C        -4.6021444753       -3.9079944323       -0.6159069821
 C        -2.3547608069       -4.0259383474        0.6968658476
 H        -0.3367091827        4.6173644040       -2.7481773391
 H         0.4271781241        3.0998879192       -2.5323732537
 H        -1.1358565580        3.3042376466       -3.5205438639
 H        -5.5050718418        4.8495913318       -0.5687480274
 H        -5.6911649586        4.2479938176       -2.2277324319
 H        -3.4616229151        5.1067108255        0.5880052186
 H        -2.7320233563        6.1909801980       -0.4488971290
 H        -1.7169012537        4.9796691850        0.2458269621
 H        -3.2072651850        4.3935820882       -3.6312793106
 H        -3.7702690246        5.6942548171       -2.5738328590
 H        -2.0763622777        5.4625346837       -2.9701656364
 H        -7.6071797407        3.0643316891       -1.1369198125
 H        -6.2156770353        2.0553656944       -0.6685494643
 H        -5.9047294375        3.3591360297        3.0049418020
 H        -7.1036082483        2.8836086300        4.2706499079
 H        -8.5734893567        4.1077434722        3.0587954902
 H        -9.9456804994        2.8711716334        2.9468463868
 H        -9.5522269882        4.1358820900        1.6401825295
 H        -9.9708145764        1.9039905366        0.6990883936
 H        -8.4565415289        1.3948182385       -0.2016508331
 H        -9.0859284104        0.6131429062        1.2661935217
 H        -6.0134747389        1.0130801084        4.9505046179
 H        -4.8471511517        2.2948484880        4.9240863880
 H        -1.4739414708        0.0872633633        6.1943075596
 H        -1.1997864101       -1.4814387377        5.2524818041
 H        -4.9366519698       -0.6718771422        5.7792298923
 H        -3.8524100528        0.4472191371        6.4514840129
 H        -3.3917241548       -1.2895073030        6.1120108079
 H        -3.2350538758       -1.9285551427        2.5917985621
 H        -3.7679876319       -2.6208439663        4.1004182087
 H        -4.9525072775       -1.6783947737        3.1875378060
 H         0.5505150217        0.1635893313        3.9246140194
 H         0.0757492145        1.2388987580        5.2982148768
 H         3.6209752011        1.3152072123        3.0286085245
 H         4.6178284470        0.5438562539        4.3062761655
 H         4.3258976777       -0.6740594628        6.3686238230
 H         4.6139812478       -2.1602016648        5.5735763428
 H         3.3721911591       -2.1201646158        6.8321074860
 H         2.3875692439       -3.2175402007        4.3477218974
 H         1.2947891412       -2.7194552844        5.8198587365
 H         0.7894405727       -2.4747114909        4.2739372686
 H         4.2862267693        0.0176191319        1.4077771749
 H         5.2888834577       -1.0877567259        2.5281232635
 H         5.4298162250        0.8051018150       -0.5715300292
 H         6.8932574254        1.5553213264       -1.1793164755
 H         8.0147471762        2.0764339017        0.6219474378
 H         9.4006992137        1.0878693178        0.9316759741
 H         8.4257051268        1.6963092493        2.3138744524
 H         8.8194822492       -1.2618512679        2.3898991995
 H         7.5707941779       -0.7889692634        3.2597821801
 H         7.3530380917       -2.0628440138        2.0389730795
 H         6.9280569865       -0.5917468074       -2.5534945310
 H         5.2184195568       -0.6196860065       -2.4896866277
 H         2.7817275151       -0.3012380893       -6.2333542456
 H         4.2392338423       -0.7718881228       -7.0189258218
 H         4.2542141026        1.2817023491       -6.5498747327
 H         5.1488892035        2.4819376468       -5.9113564379
 H         3.6417187154        1.9425251749       -4.9946416759
 H         7.1323646238       -0.4688113887       -4.9238523549
 H         6.4609490545       -0.3661251200       -6.5543270173
 H         7.1188074205        1.1622844797       -5.7071361171
 H         3.9713516351       -3.2323039245       -6.3444855393
 H         2.8067346668       -2.5545818565       -7.5572374534
 H        -0.5329934751       -2.8362818021       -3.3811340674
 H        -1.2692823231       -4.1637610466       -4.4235146192
 H        -0.3098812443       -4.3714338286       -6.2731278319
 H         0.3862571876       -5.9689644021       -6.5191806855
 H         1.1213522968       -4.6202088099       -7.2587984754
 H         2.5131189067       -6.3690715959       -4.5484671052
 H         3.2183237398       -5.5793214401       -6.0622416858
 H         3.4428401142       -4.9641386070       -4.4696660145
 H        -1.1959720314       -5.1977714546       -2.0058921352
 H        -0.3632375236       -3.9212435107       -1.3229564032
 H        -4.5235434435        0.0296401897       -0.5651637319
 H        -3.7257096038       -0.7168150034       -2.0950114683
 H        -5.0975046929       -1.4419919176       -1.3989071710
 H        -4.9595053199       -3.4711941536       -1.5957026544
 H        -5.2463668032       -3.6058191080        0.1904508241
 H        -4.6399208820       -4.9556057903       -0.6740910761
 H        -3.0330731866       -4.4245679365        1.4526578090
 H        -1.6045995618       -4.6838941088        0.2773041622
 H        -1.7375941792       -3.2056243787        1.0791748009
 Na       -2.2701570587        1.1672330651        0.6993655956
