155

 C        -0.9487626743        3.7781530169       -2.8340081022
 C        -1.8383584990        3.2670856450       -1.6938759274
 C        -3.2145635947        4.1214946019       -1.3092071808
 C        -4.3808551743        3.2236200046       -0.8041376578
 C        -5.7592723212        3.1866600451       -1.4515646843
 C        -2.7764200449        5.1037331268       -0.1198434734
 C        -3.7122941170        5.0855630327       -2.4622172278
 O        -1.4793829353        2.3478009785       -0.9184139311
 O        -4.1728649921        2.5066132142        0.1553813489
 C        -6.8645270667        2.5242446418       -0.5747092903
 C        -7.2511927675        3.3872456796        0.6126255897
 C        -8.2509067704        2.6763814798        1.6475063301
 C        -7.5326547172        1.5949843497        2.5571125854
 C        -6.3722721335        2.2686677992        3.3902552373
 O        -7.0940005121        4.6100269233        0.6458308932
 O        -7.6281002041        0.4159107633        2.4054534758
 C        -8.7502409802        3.8159053736        2.4917071820
 C        -9.3009437866        1.8543949475        0.8755432995
 C        -5.5303053067        1.2804082883        4.2358678279
 C        -4.3972896053        0.6539541354        3.3995293240
 C        -3.3881907981       -0.3970532057        4.1429462429
 C        -1.9148701741        0.1618206209        4.0687517348
 C        -0.9336513164       -0.2702358960        5.1436954338
 C        -3.8533545639       -0.6498564020        5.6330675104
 C        -3.3984213143       -1.7718101711        3.4919285467
 O        -4.2420493573        0.8902520422        2.2104034169
 O        -1.6377771556        0.9342676285        3.2132248753
 C         0.4833357564        0.4897533023        5.0967228244
 C         1.5157710654       -0.3938943623        5.7855823749
 C         2.5501827421       -1.1838207495        4.8788192745
 C         2.5317739220       -0.6861623667        3.4084702352
 C         3.4987508521        0.4824367479        2.8978658159
 O         1.5300144727       -0.5297685541        7.0141010430
 O         1.7816889198       -1.2427499586        2.5878821296
 C         4.0714881918       -1.2031262416        5.3493301519
 C         1.9482822063       -2.6336970878        4.8284276010
 C         4.6458557241       -0.2413825284        2.0639116117
 C         5.8781852281        0.6046846413        2.0662856996
 C         7.3233299737       -0.0911942942        1.4477804660
 C         7.0628503713       -0.4551291046       -0.0462052767
 C         6.7985928733        0.7087638140       -0.9973081277
 C         8.5833410589        0.8974561638        1.4530229831
 C         7.6516999792       -1.3766661093        2.2308655243
 O         5.9280553892        1.6898519831        2.5427553384
 O         7.1751620858       -1.5740215583       -0.4977855624
 C         6.0700488108        0.1534940988       -2.2812214757
 C         5.5091326116        1.1546421528       -3.2684745784
 C         5.2258153913        0.6133955500       -4.7457304186
 C         4.2184310844       -0.5587782726       -4.6643511554
 C         3.5891614967       -0.9325322870       -6.0794558691
 O         5.4417145039        2.3320609512       -3.0476414276
 O         3.9341999416       -1.1933722672       -3.6869872733
 C         4.6333515671        1.7939752658       -5.6318084194
 C         6.5354726422        0.1686590980       -5.4737499667
 C         3.2684892261       -2.3498612832       -6.2137628688
 C         2.3103674286       -2.7782192055       -5.1227600691
 C         2.1620335180       -4.3716398875       -4.7326908377
 C         1.4439496558       -4.3334187645       -3.3850539475
 C        -0.0673344490       -4.1093158170       -3.4489346422
 C         1.2621631570       -4.7319356998       -5.9445430951
 C         3.3434077860       -5.2687609087       -4.5698636430
 O         1.5006041551       -1.9858115743       -4.7003687929
 O         1.8732450774       -4.4942749290       -2.2617881179
 C        -0.7013020810       -3.9670510387       -2.0853969763
 C        -2.0370674458       -3.3394382404       -2.2674319194
 C        -3.1072913455       -3.3544216677       -0.9759571374
 C        -3.2335024690       -1.7814809671       -0.5678365657
 C        -4.3280261909       -0.7972800810       -0.9989767792
 O        -2.5075883310       -2.8033454267       -3.2614163565
 O        -2.3530253027       -1.3681368007        0.1480320985
 C        -4.4317933854       -3.9270092369       -1.5904940661
 C        -2.6836445449       -4.2411215436        0.1977016909
 H        -0.2079815529        4.5218814106       -2.5431677621
 H        -0.4100482702        2.9675111162       -3.3467297274
 H        -1.6596888002        4.1219903907       -3.6309363554
 H        -6.1130177967        4.1436965144       -1.8640224720
 H        -5.6894326856        2.6025125619       -2.4200546535
 H        -2.0442920825        5.8827124225       -0.3477591158
 H        -2.4696523841        4.5040196218        0.6919079564
 H        -3.6064577387        5.6240477856        0.2847173789
 H        -3.9350630254        4.6029361789       -3.4545695818
 H        -4.5653824230        5.6771321598       -2.1186392573
 H        -2.9242215480        5.8027237923       -2.6766794312
 H        -7.7617053338        2.3048712064       -1.1336190432
 H        -6.3456960223        1.6339593652       -0.2207229805
 H        -5.7763135350        2.9763067410        2.7798759804
 H        -6.8245355452        2.9413283738        4.0647183885
 H        -7.9895590010        4.4120445028        3.0679657191
 H        -9.4579395920        3.4656544455        3.2383524017
 H        -9.3324832073        4.5325298651        1.7948256849
 H        -9.4921526236        2.2533402618       -0.1078100231
 H        -8.8881044682        0.8466523735        0.8229721577
 H       -10.2158788380        1.7146789777        1.5585274615
 H        -6.2009851660        0.5180775133        4.7661183456
 H        -4.9054974167        1.9336142492        4.9446586977
 H        -1.3454250971       -0.2531016533        6.1288865104
 H        -0.6667803813       -1.3449232965        4.9535404962
 H        -4.8591665297       -1.1531796203        5.5315629831
 H        -3.9354712250        0.2952054826        6.1801597481
 H        -3.2974407358       -1.4022376302        6.1689752878
 H        -3.4617877116       -1.8027638474        2.4482953754
 H        -2.4609297677       -2.3376029878        3.7554617804
 H        -4.3370243846       -2.1059064057        3.8147912015
 H         0.7530197905        0.4983563209        4.0910241656
 H         0.5362082224        1.4826976676        5.5545061245
 H         3.0061292629        1.2290233053        2.3504080001
 H         3.9510720449        1.0237587759        3.7617951438
 H         4.7129371949       -0.3663535802        5.0420244200
 H         4.5434824954       -2.0200784406        4.6767393228
 H         4.4127078582       -1.5015758093        6.3690323105
 H         2.5098638440       -3.2352327267        4.1460701618
 H         2.1247813771       -3.1408924045        5.7053365204
 H         0.9533043703       -2.6630644184        4.4672047941
 H         4.4108014561       -0.4258489756        0.9490846335
 H         4.8739112743       -1.2449562838        2.3680822329
 H         6.3039374821        1.5476784901       -0.5019445926
 H         7.6497988338        1.1407996930       -1.5162771858
 H         8.3165220232        1.8998673670        1.0598340411
 H         9.4298837245        0.5287717342        0.8280239771
 H         8.9659039290        1.0454207701        2.5092234706
 H         8.1616529136       -2.1786750571        1.7079211897
 H         8.2336029524       -1.3377979549        3.1779827630
 H         6.7597924577       -1.7614052993        2.7070150788
 H         6.5606566186       -0.6570703579       -2.6970913594
 H         5.2647769486       -0.4217715733       -1.8200025279
 H         2.6351501156       -0.3506201055       -6.1964048465
 H         4.3186673263       -0.6248034532       -6.8734837074
 H         4.5279448650        1.6093120450       -6.7438514024
 H         5.2485643985        2.6269175993       -5.3187248337
 H         3.6913488840        2.0589785197       -5.2129738335
 H         7.0955839407       -0.6806140631       -4.9933103912
 H         6.1833444406       -0.1540395778       -6.4795212347
 H         7.0651283649        1.0771848861       -5.6726436911
 H         4.2624607216       -2.9382721473       -6.0911676022
 H         2.8756275283       -2.5960504341       -7.1706512374
 H        -0.2695681213       -3.1886433391       -4.1083679799
 H        -0.5144593853       -5.0120942858       -3.8019363878
 H         0.3361127280       -4.1654723316       -6.0706344620
 H         0.9940704693       -5.7976599909       -5.9538436789
 H         1.7640885055       -4.5672408401       -6.8291961608
 H         2.9419746440       -6.3456285548       -4.4966113704
 H         3.9447690738       -5.2916582735       -5.4632555131
 H         3.9968945805       -5.0128040136       -3.6984898764
 H        -0.8901095065       -5.0001226896       -1.5795546499
 H        -0.0416404140       -3.4148987205       -1.4952892493
 H        -3.7593937761        0.0922965429       -1.3302651723
 H        -5.0071001712       -1.1887826027       -1.6784468558
 H        -4.9196251849       -0.4802221673       -0.2076365452
 H        -4.7072843685       -3.3835496007       -2.4845317456
 H        -5.3114478586       -3.8349619872       -0.9232146202
 H        -4.3121719564       -4.9632644861       -1.8829014116
 H        -2.7139098167       -3.8752955168        1.2020784737
 H        -3.2511047028       -5.1452929719        0.1018529798
 H        -1.6091970783       -4.3818398525        0.1180556878
 Na       -2.4690235135        0.9964682699        0.7696156340
