155

 C        -1.2604864136        3.4656556285       -2.6178985226
 C        -2.3356073854        2.9768902504       -1.6620665437
 C        -3.4733994649        4.1345066603       -1.1909581449
 C        -4.5658426703        3.1169808410       -0.6414030583
 C        -5.8038302843        2.8014912357       -1.5878393814
 C        -2.8847799137        5.0101728317        0.0314659680
 C        -3.8790154616        5.1380133535       -2.2558603274
 O        -2.1900250679        1.8702807098       -1.1213545623
 O        -4.4544357749        2.5627390281        0.4164052574
 C        -6.9789643787        2.2844813041       -0.6481111423
 C        -7.3334680825        3.2833760428        0.4452357943
 C        -8.2194114184        2.8039675780        1.6631521414
 C        -7.4947523422        1.6695028913        2.4488870314
 C        -6.3260632760        2.2028745377        3.2673562069
 O        -7.0064947469        4.4644186863        0.4658613731
 O        -7.6581019805        0.4792983628        2.2466867696
 C        -8.5404108318        4.1299766194        2.5139350450
 C        -9.5255382309        2.0028738851        1.1348373292
 C        -5.7589286109        1.0768206118        4.2545267869
 C        -4.5741783927        0.3741608674        3.4818556938
 C        -3.3608808586       -0.3361651790        4.2271305191
 C        -1.9554618267        0.4322627204        4.1459155092
 C        -0.9414976253       -0.1050798887        5.1366285893
 C        -3.7369281005       -0.7698954084        5.6248558190
 C        -3.0460078662       -1.6278531686        3.3766059244
 O        -4.5233332217        0.5313706934        2.2800992554
 O        -1.6211625978        1.1353592500        3.2354807825
 C         0.4120359815        0.3832313482        4.6002493267
 C         1.5367689821       -0.4088308004        5.4430237933
 C         2.5795147319       -1.3046358037        4.7070868749
 C         2.5206224901       -1.0110357628        3.0853120673
 C         3.4384368014        0.0881541951        2.5150217748
 O         1.7226529352       -0.2538602763        6.6292433753
 O         1.6261249248       -1.5258973787        2.4542240429
 C         4.0212297120       -0.9779780744        5.2845576678
 C         2.2364312951       -2.7950710230        4.7588766360
 C         4.8518973888       -0.5680896236        2.2271407936
 C         5.9968938024        0.3973398335        2.1030393548
 C         7.3534104610       -0.1199338766        1.6367660950
 C         7.0620799520       -0.3509223549        0.0526493014
 C         6.5482881771        0.7769935002       -0.8708568075
 C         8.4611301882        0.7872821672        1.8946765081
 C         7.6851954482       -1.4053981690        2.2845245183
 O         5.8744237686        1.6244624931        2.2231926067
 O         6.9388346832       -1.5454833383       -0.2468429836
 C         6.1027810745        0.2131882361       -2.2224176068
 C         5.6779831329        1.2783142438       -3.1597223772
 C         5.3773964695        0.8810854464       -4.6682418700
 C         4.4035150786       -0.3461632849       -4.7121946799
 C         3.6870322095       -0.7307435972       -6.0494850692
 O         5.3512176459        2.3993352845       -2.7220150961
 O         4.2075661520       -1.0363239900       -3.7392890336
 C         4.8596562221        2.1731200314       -5.4711605292
 C         6.7560728244        0.5606874922       -5.3745568672
 C         3.5224697041       -2.2467136197       -6.1707327264
 C         2.4540554099       -2.7881240996       -5.1088989095
 C         2.5445392498       -4.2225008234       -4.5385964722
 C         1.6695706552       -4.2702220752       -3.3157773621
 C         0.1384783310       -4.0664499764       -3.3654800845
 C         1.9674356374       -5.2865594668       -5.5581676054
 C         4.0072964339       -4.7491319173       -4.2870250181
 O         1.4838572273       -2.1319988374       -4.9515015557
 O         2.1377570251       -4.4071484289       -2.1973542359
 C        -0.6109420047       -3.8271057118       -1.9815949517
 C        -2.1089381057       -3.3385030640       -2.2804528787
 C        -3.3046576485       -3.2388412095       -1.1519839375
 C        -3.3915202252       -1.6773120247       -0.8385389268
 C        -4.5258201125       -0.7396936912       -1.2674498094
 O        -2.4227261145       -2.9152477652       -3.4238613786
 O        -2.4995597248       -1.1468544050       -0.1977131266
 C        -4.5069895886       -3.9524790008       -1.7962991960
 C        -2.8918891132       -3.8910290474        0.1585166389
 H        -0.3968053166        3.8145241758       -2.1354711768
 H        -0.9643584153        2.6811514291       -3.3565373785
 H        -1.6811066005        4.2926036924       -3.2323077180
 H        -6.2449399051        3.6948303526       -2.0375257434
 H        -5.5466430646        2.2487539159       -2.5344627920
 H        -3.1005923923        6.0892195332       -0.1873269659
 H        -1.8343038826        4.8969035432        0.3420736422
 H        -3.3680059728        4.6987251134        0.9388481469
 H        -4.3960555635        4.6981054812       -3.0734823022
 H        -4.6042457180        5.8052856435       -1.8338227875
 H        -3.0426363967        5.7607455227       -2.4690909618
 H        -7.8570600208        2.1468362452       -1.2482600527
 H        -6.7007172994        1.3474486169       -0.2061346498
 H        -5.5319089030        2.7178905182        2.6836890496
 H        -6.7106328836        2.9879794673        3.8711259056
 H        -7.5140679971        4.6359468563        2.7600679585
 H        -9.1020519036        3.9902686121        3.4934587396
 H        -9.1341543706        4.8432608917        1.9932688456
 H       -10.3984780994        2.6493609549        1.1610967185
 H        -9.4435275632        1.7246734772        0.1256775701
 H        -9.5471880310        1.0251151292        1.6369059154
 H        -6.5792514137        0.3345375496        4.4707502482
 H        -5.4181956938        1.5422348067        5.1727299631
 H        -1.1107525431        0.3068760865        6.1582017975
 H        -1.0483474592       -1.2238011787        5.2478680332
 H        -4.4733166711       -1.5374677697        5.6448031674
 H        -3.9737151648        0.1487863686        6.2132565671
 H        -2.8242491561       -1.1309776747        6.0802732294
 H        -2.4401444115       -1.3637371175        2.4982382052
 H        -2.5039680021       -2.3624224389        4.0203526350
 H        -3.9763535683       -2.0470633761        2.9469268151
 H         0.4077951163        0.2641011206        3.5435937265
 H         0.4117791028        1.5030314577        4.7603829967
 H         2.9117991639        0.4755732406        1.7111829252
 H         3.6377743002        0.9579327332        3.1986526243
 H         4.2565190551        0.1061481382        5.2662991965
 H         4.7919923192       -1.6667501694        4.8720495054
 H         4.1105081153       -1.1689873049        6.3931788707
 H         3.1060684927       -3.5049134240        4.6198333859
 H         2.1132602633       -2.9741155573        5.8441431029
 H         1.4410659989       -3.0341533730        4.1533093015
 H         4.8779300743       -1.2530783092        1.3333421729
 H         5.1480299993       -1.2992193143        2.9786567277
 H         5.8115293655        1.4108155797       -0.3910614658
 H         7.4486337613        1.4252557726       -0.9592671457
 H         8.1592541697        1.7590249895        1.4556096710
 H         9.3560362371        0.3850639189        1.5783269789
 H         8.6212318892        0.9997749095        2.9915415011
 H         8.7387983305       -1.5698198169        2.3682532651
 H         7.3268732086       -1.6560565065        3.2536079438
 H         7.2989882171       -2.3013080478        1.8187242235
 H         6.8699624294       -0.3991276280       -2.5541856710
 H         5.3729996021       -0.5183808055       -1.9745022103
 H         2.6945490289       -0.2825168628       -6.1081266877
 H         4.3038687159       -0.4635385222       -6.8958355568
 H         4.5887314248        1.8526505533       -6.4799979478
 H         5.6035568977        2.8949421997       -5.3867642626
 H         4.0153783770        2.6105728001       -4.9895907610
 H         7.1825934649       -0.4213181111       -5.1593707079
 H         6.4664839682        0.6985196394       -6.4199465331
 H         7.4763850472        1.2775290884       -5.1158399775
 H         4.5181359711       -2.7588557834       -6.1564241462
 H         3.1466889976       -2.4444316216       -7.1792291097
 H        -0.0805827750       -3.1975460261       -4.1191022194
 H        -0.3867825906       -4.9332800375       -3.7306059522
 H         0.9172016783       -5.0472185286       -5.8633661403
 H         1.8385634452       -6.2899296173       -5.0790642101
 H         2.5540476133       -5.3501277546       -6.4383376633
 H         4.0274236762       -5.6401179942       -3.6551584582
 H         4.5046825268       -4.9976564406       -5.1953851994
 H         4.5436257716       -4.0568228330       -3.7461017548
 H        -0.7619822057       -4.7386568151       -1.3842383807
 H        -0.2364177847       -2.9657529457       -1.4714937967
 H        -4.1175377477       -0.2376458669       -2.2010437275
 H        -5.3769979619       -1.2191480227       -1.5862217135
 H        -4.7917846101        0.0091695629       -0.5740961866
 H        -4.7824289043       -3.4473544064       -2.7340494469
 H        -5.3887893168       -3.7811029306       -1.1571080405
 H        -4.4645398380       -4.9617243605       -1.9986644513
 H        -3.4416017192       -3.4469191967        1.0044498011
 H        -3.1460075332       -4.9613710870        0.2510881787
 H        -1.8149327208       -3.7937661303        0.3962185791
 Na       -2.6334486501        0.9430086304        1.0194357256
