155

 C        -1.4783423511        3.3942339775       -2.7486366292
 C        -2.3944553216        2.7899363118       -1.7042338602
 C        -3.4923136978        3.8057616020       -1.0891770866
 C        -4.7801075718        2.9817946799       -0.4747362835
 C        -5.9747187793        2.6992294455       -1.4754957805
 C        -2.8555393896        4.5927044660        0.1262205483
 C        -4.0046180440        4.8875911540       -2.0715677341
 O        -2.1613570225        1.6863935948       -1.1968022825
 O        -4.7741751458        2.7178825173        0.6796342461
 C        -7.2318222166        2.2576964278       -0.5797736664
 C        -7.4410218489        3.2939247619        0.5345454741
 C        -8.2993709503        2.8455569740        1.7120659065
 C        -7.4033882743        1.7313309429        2.4903982985
 C        -6.2943070991        2.1864866545        3.4485357499
 O        -6.9665889899        4.4028315399        0.5637969088
 O        -7.6472465428        0.5757584354        2.1527520506
 C        -8.5219030543        4.1372146874        2.5358391784
 C        -9.5761090337        2.1636953576        1.1973831679
 C        -5.4543044891        1.0771125041        4.1644365218
 C        -4.6872338233        0.1015909318        3.3409725952
 C        -3.4226556201       -0.5142317430        4.0914047724
 C        -2.1959474605        0.4370557332        3.8989011477
 C        -1.1585673599        0.4624817268        4.9494952828
 C        -3.7108048391       -0.7767975873        5.6220589581
 C        -3.2097131196       -1.9383253263        3.4472405909
 O        -4.9613866489       -0.1349499079        2.1722443729
 O        -2.0421888500        1.1291622690        2.9066241313
 C         0.3373622261        0.3421355417        4.2912931506
 C         1.4550122660       -0.3271013758        5.2462547196
 C         2.5078321185       -1.2743217107        4.5669936279
 C         2.4953998003       -1.3225462803        3.0656723366
 C         3.5124692417       -0.3240234341        2.2827543769
 O         1.4371172923       -0.0833920799        6.4061276339
 O         1.6314416346       -1.9208721987        2.5122258276
 C         3.9367592504       -0.8981982313        5.2835482282
 C         2.0325729997       -2.6660692020        5.1751379209
 C         4.9696338894       -0.8782230312        2.1921197744
 C         6.0242512708        0.2583589126        2.1829174667
 C         7.4212836167       -0.1039226310        1.5746778468
 C         7.2505432716       -0.4332401739       -0.0277674159
 C         7.0920895572        0.7097346794       -0.9499087957
 C         8.3369716391        1.2319968837        1.7189896369
 C         8.0184388975       -1.3058772460        2.3471874863
 O         5.6642155794        1.4027140092        2.5093586486
 O         7.1675989825       -1.6072814279       -0.3603483271
 C         6.6242125783        0.2711151814       -2.3670031306
 C         5.6908205886        1.3086534047       -3.0650670269
 C         5.4209323822        1.0205254504       -4.5376842059
 C         4.6126032944       -0.3828922959       -4.5924880741
 C         4.1622839599       -0.7524163923       -5.9933180602
 O         5.3212120995        2.3197735580       -2.4400428914
 O         4.3933177500       -1.0396863507       -3.5715351949
 C         4.6874264466        2.1516179221       -5.2577191346
 C         6.6874239574        0.7781636805       -5.3015502087
 C         3.7420225445       -2.2363412713       -6.2553369238
 C         2.4732637778       -2.6254711876       -5.2520907190
 C         2.7996217341       -3.8480843123       -4.3639979848
 C         1.6831183507       -3.9492489578       -3.1827686544
 C         0.1858969243       -3.8395156653       -3.5021528574
 C         2.5956665740       -5.1674708642       -5.1961193870
 C         4.1475175402       -3.8810345270       -3.6662413174
 O         1.4131447166       -2.0829127822       -5.3210774393
 O         2.0524894235       -4.2750849313       -2.0614309891
 C        -0.5058931518       -3.7272410714       -2.1493174100
 C        -1.9983305599       -3.2361866752       -2.4219780081
 C        -3.0666997054       -3.1881370066       -1.2668390869
 C        -3.3570969493       -1.6492382102       -0.9065551813
 C        -4.2226390922       -0.7406798780       -1.7164353018
 O        -2.4645647682       -2.8605516015       -3.5429423009
 O        -2.7694885132       -1.2362808528        0.0709930140
 C        -4.4121060155       -3.8651753462       -1.7231334533
 C        -2.6371014368       -3.8392759359        0.0977319098
 H        -1.1606651184        4.3648521253       -2.6050297555
 H        -0.6648326506        2.6432725958       -2.9144369926
 H        -2.0290146837        3.4641468537       -3.6954327389
 H        -6.2517624005        3.5887495516       -2.0226802299
 H        -5.7423898850        2.0078966878       -2.3194900566
 H        -3.4357080268        4.7051578587        1.0659508887
 H        -2.6771070057        5.6617297213       -0.1889265593
 H        -1.9219032862        4.0690272751        0.3899927673
 H        -4.6101379513        4.5150109676       -2.8800083725
 H        -4.6435157826        5.5791295288       -1.4923221955
 H        -3.1266269102        5.4718364507       -2.4344283067
 H        -8.0894662941        2.2338467069       -1.2269729215
 H        -7.1064535865        1.2137343846       -0.3270461704
 H        -5.6375245341        2.9280832562        2.9261846640
 H        -6.8122098535        2.7319282829        4.2435606891
 H        -7.6374075160        4.8024499653        2.7295591842
 H        -8.9593521381        3.8900295916        3.5944498383
 H        -9.2080685292        4.8255979949        2.1893925980
 H        -9.8910705353        2.5264344565        0.1856756288
 H        -9.5139575759        1.1000365033        1.1156505186
 H       -10.3750720312        2.4171133397        1.9302492209
 H        -6.2020775643        0.5190385760        4.7631835925
 H        -4.8124920768        1.4445434242        4.8733602412
 H        -1.2853719977        1.4366632087        5.5272556805
 H        -1.3562881563       -0.3507010041        5.6773926791
 H        -4.6746801315       -1.0875237309        5.7564150687
 H        -3.4893163701        0.0976890681        6.3056865402
 H        -3.0190067749       -1.5602337531        5.8638684143
 H        -3.5205613156       -1.6658437584        2.3969424306
 H        -2.2277114348       -2.3733635980        3.5235943543
 H        -3.7928328552       -2.7584973570        3.8632983523
 H         0.1916551656       -0.2054618832        3.3753506768
 H         0.5668147146        1.3859687166        3.8804584011
 H         3.1866309499       -0.1322821968        1.3117247125
 H         3.4717303761        0.6538636133        2.8825725824
 H         4.2869549509        0.0464763881        4.8654890335
 H         4.6185798472       -1.6228544755        4.9573306198
 H         3.9462042798       -0.8272371027        6.3660562388
 H         2.6461895182       -3.4613058235        4.6214337908
 H         2.1809413646       -2.6111931757        6.3070247669
 H         0.9606945893       -2.8326102453        5.0468665096
 H         5.0033104382       -1.3836446633        1.2054454332
 H         5.2675400702       -1.5961332410        2.9537413775
 H         6.2653633273        1.3372165451       -0.6090046069
 H         8.0259980945        1.3295862723       -0.8039747971
 H         7.7820056758        2.0682124842        1.2935664699
 H         9.2400953548        1.1001298195        1.2657530945
 H         8.5180457231        1.4142814648        2.7843482772
 H         8.8552466667       -1.7715957724        1.8563495975
 H         8.3714390016       -1.1217569775        3.3140053107
 H         7.4461784909       -2.2413925953        2.4459300124
 H         7.5599477523        0.0451633735       -2.8176634180
 H         6.0399660488       -0.5906206524       -2.3502809733
 H         3.3256504849       -0.1329481870       -6.2538597402
 H         4.9352088671       -0.5625970877       -6.6700495664
 H         4.7088276619        1.9705587904       -6.3477059484
 H         5.3170501858        2.9985884283       -5.1187637928
 H         3.6428255035        2.3005450689       -4.9016544978
 H         7.3171748080        0.0332065108       -4.8198284806
 H         6.4428670515        0.4514824806       -6.3339230266
 H         7.2402000176        1.6737198499       -5.2691889651
 H         4.6045364595       -2.8746578462       -6.2625647316
 H         3.3081206636       -2.2780915618       -7.3061036937
 H        -0.1188946057       -3.0280214204       -4.2759021679
 H         0.0483008464       -4.7239882845       -4.0525305584
 H         1.6941672266       -5.2926539850       -5.8368958692
 H         2.6731501172       -6.0517699487       -4.5442636468
 H         3.4744688209       -5.2949159534       -5.8104426959
 H         4.2558693988       -4.7808671613       -3.1016080586
 H         4.9707655956       -3.8106280559       -4.3529775291
 H         4.1260542299       -3.1899425113       -2.9117440894
 H        -0.6137031290       -4.6017793456       -1.5295288462
 H        -0.1086526935       -2.8819179408       -1.6023524950
 H        -4.8405959771       -1.2788076461       -2.4637617872
 H        -4.9729043526       -0.1988443482       -1.0917831256
 H        -3.5031800419       -0.0432586261       -2.1676507293
 H        -4.6523671821       -3.6515736705       -2.8052907093
 H        -5.3442919942       -3.6593792966       -1.1757759424
 H        -4.3237826926       -4.9054249692       -1.6967526358
 H        -3.4255531473       -4.4582332499        0.5378217953
 H        -1.7661590828       -4.4742568540       -0.0481655333
 H        -2.1209968013       -3.2207414043        0.8151933800
 Na       -3.1016754645        1.0441069877        0.8528947634
