155

 C        -2.1640706446        3.0495311149       -3.0716809885
 C        -2.6279974632        2.7565419468       -1.6924906661
 C        -3.6402862818        3.8112587708       -1.0729249530
 C        -4.9168978976        3.1526851657       -0.5526481924
 C        -6.1414781755        3.1415258026       -1.4452545131
 C        -2.8849311200        4.3879309202        0.1747643252
 C        -3.9351939015        4.9597989694       -2.0733867639
 O        -2.4643760095        1.7631449747       -1.0424579691
 O        -4.8239257620        2.3490479752        0.3980701937
 C        -7.3011234384        2.5106355413       -0.6218001011
 C        -7.6249097003        3.3822033364        0.6523980461
 C        -8.4729787293        2.8761021605        1.9038138501
 C        -7.6655079516        1.7155849531        2.6631940738
 C        -6.5235773447        2.0997933777        3.5090223546
 O        -7.1197648848        4.4799828657        0.7532493870
 O        -8.0893364632        0.5667061344        2.5826509708
 C        -8.8092708030        4.0073353224        2.8221599569
 C        -9.8021907578        2.3334293882        1.3087353403
 C        -5.7024407379        1.0568111526        4.3553735470
 C        -4.8996654887        0.2283640312        3.4023320617
 C        -3.6272260891       -0.4619713886        3.9362109075
 C        -2.3951330607        0.4898966081        3.6119229659
 C        -1.1463041372        0.4028976614        4.4702172852
 C        -3.5862130709       -0.7130784188        5.5625674267
 C        -3.4717062099       -1.8714464529        3.3915471084
 O        -5.1904546852        0.0860507818        2.2318776957
 O        -2.4841549075        1.1460593991        2.6347852061
 C         0.0078537643       -0.5507742686        4.1045151139
 C         1.2328644228       -0.2233983170        4.9556344189
 C         2.4087329737       -1.2804924582        4.7546370761
 C         2.6408682450       -1.5637694732        3.1581200009
 C         3.5312978549       -0.7062889425        2.3323808209
 O         1.3175895898        0.6877347374        5.7270037360
 O         2.0724458805       -2.5350020000        2.7135227488
 C         3.7161819592       -0.7119258034        5.3105992283
 C         2.0420650573       -2.6367539453        5.4296882512
 C         4.9546960456       -1.1269989114        2.1877061960
 C         5.9817373230        0.1147168679        2.1987850808
 C         7.5224812608        0.0241230489        1.5674695369
 C         7.4247493012       -0.2390587753        0.0339926967
 C         7.6487257669        0.8525581168       -1.0492372218
 C         8.2168773659        1.4617552242        1.7719062407
 C         8.3199675278       -1.1345439430        2.2673183772
 O         5.6218833463        1.0870432835        2.8419965560
 O         7.1042440772       -1.4233180334       -0.2820255509
 C         7.1413025202        0.4680312852       -2.4559526328
 C         5.9573035655        1.3049128860       -2.9720572857
 C         5.6736566829        1.2368396591       -4.5490560053
 C         4.8285645608       -0.1691511197       -4.7821179381
 C         4.8369951802       -0.7858261149       -6.1321855101
 O         5.2274694677        2.0272829500       -2.2418151987
 O         4.2218719251       -0.5692220928       -3.8044437939
 C         4.7409180018        2.4129809897       -4.7659423814
 C         6.8681396979        1.3013037709       -5.4909598974
 C         4.3670140122       -2.2529809660       -6.0249781769
 C         3.1136659930       -2.4450498393       -4.9731879173
 C         3.0708810601       -3.6248320239       -3.9652859468
 C         1.8715692472       -3.5421266325       -2.9092794775
 C         0.3882826540       -3.3885521964       -3.4869123292
 C         2.8914355593       -4.8717624288       -4.9249801596
 C         4.4506939129       -3.8295574601       -3.3433771417
 O         2.1224829392       -1.8144386287       -5.2936374076
 O         2.0300631138       -3.5562539938       -1.7022501454
 C        -0.6010181156       -3.9579715149       -2.5043929847
 C        -2.0919074318       -3.5152535477       -2.6395292585
 C        -3.0809309979       -3.5283224566       -1.4688328299
 C        -3.2927697266       -2.0792864137       -0.9782305777
 C        -4.1292033040       -1.1421468914       -1.8647753485
 O        -2.5236893923       -3.1047228463       -3.7541739996
 O        -2.7206810853       -1.6351023153        0.0465323213
 C        -4.2964051144       -4.1824841332       -2.0901846618
 C        -2.4905610756       -4.4191073248       -0.2705913219
 H        -1.4388464828        3.8477399457       -3.1515513167
 H        -1.7404631028        2.1159276706       -3.4326346949
 H        -2.9492903460        3.3683040907       -3.7722139397
 H        -6.3560023761        4.2560173996       -1.6208698874
 H        -5.8927035378        2.6888304148       -2.4166081541
 H        -3.1515410685        5.5119356750        0.1838471541
 H        -1.7790431958        4.2145668383        0.1438774797
 H        -3.3486990284        3.9921787857        1.1013472297
 H        -4.6291624814        4.7213079290       -2.9250507281
 H        -4.1730613811        5.8591469063       -1.5366680496
 H        -3.0321880905        5.1948513344       -2.5671974806
 H        -8.1560142712        2.3094187783       -1.2220695605
 H        -6.9944946180        1.5487682650       -0.2402460113
 H        -5.8204907259        2.6398505017        2.9244507141
 H        -6.9356210122        2.7236022956        4.2863229327
 H        -7.9478961805        4.7083329464        3.1806107253
 H        -9.1548858393        3.7275415840        3.8425421888
 H        -9.4573237314        4.6735701488        2.4079565527
 H       -10.5209034494        3.0372651794        1.0472104533
 H        -9.5294324815        1.7626487534        0.4501854368
 H       -10.4960307743        1.7477055391        1.9452557208
 H        -6.3182478277        0.3563248847        4.9823653775
 H        -5.0527664170        1.5653908564        5.2073470401
 H        -0.7507621071        1.4101646558        4.4487464373
 H        -1.3476281560        0.1257065544        5.5629925850
 H        -4.5193233767       -1.2561960677        5.8276206191
 H        -3.5830657001        0.2047933170        6.0944640343
 H        -2.7584579279       -1.3427001868        5.8977948955
 H        -3.6373905698       -1.9372751124        2.3275547255
 H        -2.4244539070       -2.3122514488        3.5131222030
 H        -4.1844939576       -2.4301572956        4.0075199089
 H        -0.2686991830       -1.6267436606        4.2842853278
 H         0.3548467050       -0.5408833098        3.0893765689
 H         3.1030104129       -0.7315680814        1.2796051573
 H         3.4730649059        0.2588826049        2.7333130956
 H         3.9970768274        0.2337591479        4.9170557904
 H         4.5322908530       -1.4634907955        5.1348921736
 H         3.4766146648       -0.7176985648        6.3845177152
 H         2.9831285281       -3.2875962935        5.3388527476
 H         1.7389526289       -2.3976206823        6.4624212418
 H         1.2770977838       -3.1532829323        4.9381761925
 H         5.2074204588       -1.5977206351        1.2161362312
 H         5.3277278495       -1.7105035083        3.0467786680
 H         7.0581677482        1.6303859983       -0.5688508847
 H         8.6650428513        1.1264895342       -1.1405841318
 H         7.8379371892        2.2597556690        1.1424779746
 H         9.2349806101        1.3036320540        1.5394089571
 H         8.0245184662        1.6678092564        2.8351818267
 H         9.3166608377       -1.3477399989        1.9661980250
 H         8.4782953459       -1.0820553656        3.3547114351
 H         7.8408499145       -2.0665584647        2.1198971956
 H         7.9796184832        0.6844208586       -3.1220021129
 H         6.9332805543       -0.6606454971       -2.3876055740
 H         4.1655278226       -0.3141213780       -6.8251748716
 H         5.7556222898       -0.8133480399       -6.7520459061
 H         4.2730388923        2.5087451178       -5.7638754234
 H         5.2634088790        3.3384752993       -4.5329738162
 H         4.0087338270        2.2096488781       -4.0492690653
 H         7.4804029904        0.4000343356       -5.4051452935
 H         6.4677041887        1.2904886380       -6.4649323537
 H         7.4630342663        2.2183429176       -5.4782417605
 H         5.2192308403       -2.8967738047       -5.6430730626
 H         4.0144138200       -2.5026774202       -6.9548461162
 H         0.3184515577       -2.4101007444       -3.8486000108
 H         0.4737573809       -3.9524937820       -4.4657400442
 H         1.8680262730       -4.8492645323       -5.3563797134
 H         2.9285202083       -5.8107966910       -4.3115455039
 H         3.5339565558       -4.9146494854       -5.7858986538
 H         4.2939887356       -4.7501828685       -2.7497219851
 H         5.2217956832       -4.0310292182       -4.0133771631
 H         4.7446838894       -3.0244164112       -2.7856641107
 H        -0.6675079623       -5.0555527454       -2.6751262555
 H        -0.3805879715       -3.9123980903       -1.4666304524
 H        -4.5195592774       -0.2396793255       -1.3420757727
 H        -3.5321312014       -0.7370134594       -2.5728345593
 H        -4.8803709170       -1.6643582976       -2.4414782215
 H        -4.4895798355       -3.9014809372       -3.0905706596
 H        -5.2487582089       -3.9516344228       -1.6120785843
 H        -4.2272475385       -5.2690440730       -2.1093915404
 H        -1.4319092237       -4.2121588956        0.0080779023
 H        -3.1361017886       -4.4894674543        0.6287589506
 H        -2.3395963342       -5.4226369757       -0.7353110656
 Na       -3.3359140566        0.5888379169        0.7141614971
