155

 C        -3.0731116202        2.4181915632       -3.6600535681
 C        -3.2104621626        2.0112279530       -2.1732812084
 C        -3.7152879313        3.1534214211       -1.1930607925
 C        -5.1367794268        2.7348172934       -0.8722857984
 C        -6.1475106556        3.7602733698       -0.3484129366
 C        -2.7489278889        3.1663488258        0.0604030713
 C        -3.7981825756        4.6199746975       -1.7790638837
 O        -2.9222941109        0.9313943099       -1.7132727792
 O        -5.5118059150        1.6072076697       -1.1826368470
 C        -7.2848048792        2.9536325553        0.2080619611
 C        -7.6382751922        3.4580086585        1.5845378087
 C        -8.7056552093        2.6612995143        2.3842128259
 C        -7.7834315053        1.4959420749        3.1660375289
 C        -6.7158182102        2.1671008724        4.1299298540
 O        -7.1978507873        4.4665803403        2.0312582567
 O        -7.8960374372        0.3359253989        2.9241907892
 C        -9.2755631057        3.6504805474        3.3834799993
 C        -9.7099015263        1.9139080416        1.5330189139
 C        -5.6487501701        1.1880308435        4.5521055104
 C        -4.9001774370        0.6407486108        3.3221971635
 C        -3.8976434563       -0.5525172504        3.4936740107
 C        -2.5686730805       -0.0900771116        2.7508742270
 C        -1.4982505277        0.6849465654        3.5557339054
 C        -3.6397683926       -0.9287314174        4.9795211724
 C        -4.4937403995       -1.7369283366        2.6654695215
 O        -5.2206441950        0.9438161619        2.2051028033
 O        -2.4254386975       -0.3316887788        1.5314813011
 C        -0.4933476248       -0.2334900274        4.3023637174
 C         0.9888492668        0.0939572034        4.3318130642
 C         1.9490876566       -1.0258681967        4.8687917999
 C         2.6440565359       -1.7886760441        3.5936235681
 C         3.5554690430       -0.9056409637        2.6503804602
 O         1.3925422246        1.0880943049        3.8026904274
 O         2.3846238588       -2.9434245949        3.3616277653
 C         3.2183204890       -0.4591277198        5.7082080477
 C         1.2475235274       -2.1160787938        5.7468419799
 C         5.1224409716       -1.2312066350        2.6056312856
 C         5.9649580195        0.0421917127        2.4514315085
 C         7.4515964282       -0.0524873670        1.9958021645
 C         7.4993973647       -0.0424115861        0.3580172898
 C         7.0863202714        1.1871672137       -0.5577131919
 C         8.1625257107        1.1807731036        2.5323242882
 C         8.0749583504       -1.3998841006        2.4779232698
 O         5.4365129759        1.1414496895        2.6109929527
 O         7.6706061863       -1.1048548458       -0.2956977571
 C         7.3687153666        0.9775927382       -2.0144193772
 C         6.7048939760        2.0347478873       -2.8776801760
 C         5.9616533525        1.6336909935       -4.2810712967
 C         5.4653643126        0.1861647506       -4.3581660205
 C         5.4395390900       -0.5519708485       -5.7002297995
 O         6.5833064027        3.1573999609       -2.5001472555
 O         4.8652695362       -0.2825132978       -3.4194330768
 C         4.5629784980        2.3780632239       -4.2057350553
 C         6.7691693884        2.0864523853       -5.4891014789
 C         5.1437875283       -2.0335286856       -5.4937146519
 C         3.6337610351       -2.1284045810       -4.7654192419
 C         3.5078156090       -3.2809164710       -3.7810780605
 C         2.2495923219       -2.9725839869       -2.8319772997
 C         0.9415676036       -3.5399981779       -3.1989353111
 C         3.2909155482       -4.5180979285       -4.6820259418
 C         4.6630454014       -3.4362997158       -2.8087631428
 O         2.7046326344       -1.4457356487       -5.1566796239
 O         2.4389532952       -2.2996086591       -1.8478871602
 C        -0.1951264789       -2.9769044101       -2.3501903235
 C        -1.5872302076       -3.4791567140       -2.9536842531
 C        -2.8049519206       -3.8720848627       -1.9335344874
 C        -3.5934805256       -2.5860118166       -1.8090392581
 C        -4.3918997154       -2.0790114972       -2.9692402150
 O        -1.8306047244       -3.2997712310       -4.1742826055
 O        -3.7301375192       -2.1043966733       -0.6586544277
 C        -3.6042389189       -4.9583235275       -2.7058560962
 C        -2.4892433919       -4.2935238121       -0.5181847512
 H        -2.6138303696        3.3844266834       -3.7330691307
 H        -2.4319670975        1.7368471064       -4.2452262679
 H        -4.0192124250        2.5000582162       -4.1783107811
 H        -5.5908049105        4.3111174463        0.3917454538
 H        -6.4859002251        4.4165264377       -1.2145093427
 H        -3.3950710815        3.4536836182        0.8911420516
 H        -1.9238432496        3.8249893162        0.0094665749
 H        -2.5915260729        2.1539224357        0.2887556220
 H        -4.6154555873        4.7109667659       -2.5295594678
 H        -3.8990207777        5.2379597624       -0.8995072983
 H        -2.9052786572        4.9560950839       -2.2801057266
 H        -8.1698914473        2.9941905567       -0.4113555952
 H        -7.0660657897        1.9379743351        0.2663736546
 H        -6.2235236097        3.0154494868        3.7101585023
 H        -7.2356497048        2.5778456185        4.9935709509
 H        -8.6362017285        4.2023690026        4.0749417365
 H       -10.1302394995        3.3374305836        3.9810611043
 H        -9.7006121770        4.4571505095        2.9014106276
 H       -10.2871371549        2.4639646627        0.8300101575
 H        -9.1232953336        1.1498959616        0.9908576529
 H       -10.4992869435        1.5414646921        2.1865029400
 H        -6.0804613738        0.3072877602        5.1140206710
 H        -4.8617838559        1.7696586658        5.1766178257
 H        -0.8844822682        1.3561406336        2.8742587613
 H        -1.9890415216        1.4134359907        4.2142080914
 H        -4.5445553739       -1.2063648838        5.5932122718
 H        -3.1841312439       -0.1494586675        5.5087688224
 H        -2.9584056181       -1.7592261582        5.0948393486
 H        -3.9729597824       -1.9721905782        1.7791442002
 H        -4.6008772891       -2.6253706825        3.3311865338
 H        -5.5475818807       -1.5790738256        2.4914816064
 H        -0.9031610170       -0.1242471505        5.3618135541
 H        -0.7389350551       -1.2513747966        4.1087177764
 H         3.1187115215       -0.9321708634        1.6156939396
 H         3.5419509432        0.1265417936        2.9388890596
 H         3.6072788632        0.2865014254        5.1002476909
 H         3.9312725723       -1.2290396796        6.0142823063
 H         2.7104753324       -0.0694455616        6.5418744499
 H         2.0491050483       -2.8732285589        6.1722682009
 H         0.4823993339       -1.6962973103        6.4684194735
 H         0.7214608464       -2.8204595939        5.1443097417
 H         5.3583429087       -1.8160981434        1.7040735073
 H         5.4639453401       -1.8167109588        3.4988029615
 H         6.0290503082        0.9804426591       -0.4058578982
 H         7.2590949099        2.1885377226       -0.0945123954
 H         7.7498013964        2.0465236155        2.0535598518
 H         9.1752236809        1.1685671510        2.3318804496
 H         7.8838328566        1.2812326293        3.5789447492
 H         9.0394823498       -1.7900688538        2.1183936497
 H         8.2947907882       -1.4291633051        3.5899613400
 H         7.3947749183       -2.1667776637        2.1703163338
 H         8.4505130056        1.0871756839       -2.3622376874
 H         7.1197724836       -0.0770649529       -2.4176666808
 H         4.6294297872       -0.2066396049       -6.3534222573
 H         6.4101293840       -0.3310499745       -6.2165512077
 H         3.9797176304        2.1719818329       -5.1146142116
 H         4.6270112033        3.4897140563       -4.1330033634
 H         4.1290305832        1.8903569319       -3.3578565454
 H         7.6693838305        1.5230146853       -5.7038865940
 H         6.2101549285        2.0180198016       -6.4214458355
 H         7.0565255458        3.1705573079       -5.4921179231
 H         5.7799841456       -2.5851203433       -4.7576368284
 H         5.2463346422       -2.5060258541       -6.4295024794
 H         0.8624585168       -3.3676818155       -4.2115154858
 H         0.8418231751       -4.6363485896       -2.9661529570
 H         2.5107833173       -4.3164085343       -5.3670016234
 H         3.0517413171       -5.3239743216       -4.0293023245
 H         4.1709047683       -4.7843374686       -5.3046349182
 H         4.3143932818       -4.1300941756       -1.9755312239
 H         5.5373513983       -3.8816529608       -3.2208025374
 H         4.8672387600       -2.5410097989       -2.2964844841
 H        -0.1438863053       -3.2712808624       -1.3700664906
 H        -0.3334620135       -1.9138003436       -2.5041057817
 H        -4.7222370700       -1.0713345510       -2.7164728608
 H        -3.8731279425       -2.1769045792       -3.9341642973
 H        -5.3399832212       -2.6598018983       -3.1288577377
 H        -3.6770653816       -4.6833022363       -3.7656011116
 H        -4.6593856182       -5.0372294278       -2.3625059051
 H        -3.1512201790       -5.9874320505       -2.5732406692
 H        -2.0427373481       -5.2486914414       -0.5751662377
 H        -1.7961388626       -3.6372852197       -0.0675821571
 H        -3.3674913308       -4.2845289255        0.1212928952
 Na       -4.2442887262        0.0493896696        0.2702621992
