155

 C        -3.3665226341        2.3976173078       -3.9564461522
 C        -3.6172760345        2.0720515480       -2.4942328625
 C        -4.6087188176        3.0875951144       -1.8708629431
 C        -5.9103831226        2.1687113191       -1.2834493069
 C        -7.2182350685        2.7653387859       -0.9269972070
 C        -3.9610123931        3.6665389690       -0.5562120459
 C        -5.2444193226        4.1521493408       -2.8100991691
 O        -3.0541415763        1.2389867290       -1.8381882893
 O        -5.6287550414        1.0440774850       -0.9216782448
 C        -7.7400351446        2.2529618535        0.4631903957
 C        -8.0393116608        3.5121669612        1.5023551231
 C        -8.5916092777        2.9780580999        2.9619595877
 C        -7.9841213392        1.6114376352        3.2364408621
 C        -6.4653760272        1.5998267917        3.6671959475
 O        -7.9101932451        4.6600257907        1.1812819681
 O        -8.6498718465        0.5963085582        3.2566669410
 C        -8.2592548277        3.8319747914        4.2270788063
 C       -10.1125441502        2.7227405397        2.8707268082
 C        -5.9208489695        0.2607726162        3.7904484982
 C        -5.0877655356       -0.3591531337        2.7258548611
 C        -4.1492727868       -1.6109275761        3.0268560034
 C        -2.6721570022       -0.9873052858        2.8388714776
 C        -1.5007351732       -0.9400128811        3.8209406372
 C        -4.4350131205       -2.2518697673        4.3970026425
 C        -4.5688087609       -2.6953420662        1.9191692920
 O        -5.2035685784        0.1077049612        1.6061024057
 O        -2.4181757439       -0.5299598017        1.7148920619
 C        -0.0796858482       -0.9749617047        3.2349994660
 C         0.8611375969        0.0574087422        3.8664097255
 C         2.2316675235       -0.5229408106        4.5439305964
 C         2.9155200879       -1.5294915856        3.3745035835
 C         3.7667518086       -0.9305912890        2.2418042689
 O         0.4748926049        1.2040870643        3.9490858018
 O         2.5458219597       -2.6978283462        3.3925036025
 C         3.2274770993        0.5717564087        4.9701066380
 C         1.8339095392       -1.2581707751        5.8435601932
 C         5.3531815718       -1.1135663522        2.3642719985
 C         6.0641764608        0.2740099282        2.6191973155
 C         7.7352858135        0.3049804024        2.4509027230
 C         7.8209472111        0.2802512894        0.8304292553
 C         7.6027998181        1.5578968657        0.1070509719
 C         8.3647920095        1.5352974645        3.0592842392
 C         8.4991538096       -0.9677182567        2.9800809428
 O         5.4217679468        1.3115635074        2.6334699299
 O         7.9802049503       -0.7511533176        0.1287346323
 C         6.7118008876        1.2339519852       -1.1289730954
 C         6.6162316837        2.3554998452       -2.1396331404
 C         6.4808960087        1.9905489022       -3.6465469348
 C         5.2964248636        1.0480060588       -3.8223459215
 C         4.8642739008        0.3715743004       -5.1526343732
 O         6.7830199296        3.4878249530       -1.7774102002
 O         4.7583496672        0.6431286388       -2.8256569460
 C         6.3833087405        3.3475325604       -4.4738721411
 C         7.8885883170        1.4026765950       -4.0838838194
 C         4.7414298874       -1.1637968135       -4.9500969068
 C         3.5598817014       -1.3943241319       -3.9960744105
 C         3.7095239666       -2.7449303428       -3.0408373505
 C         2.3765561203       -2.9906759802       -2.4048879789
 C         1.3747098383       -3.6996470840       -3.2200390369
 C         4.2277783460       -3.9103752701       -3.9106758966
 C         4.7498544536       -2.5333002845       -1.8085104163
 O         2.4806621960       -0.8482154500       -4.1734464988
 O         2.2552389721       -2.8364654937       -1.1891700126
 C         0.0302960786       -3.9140213011       -2.5179302557
 C        -1.1636341728       -3.6205406601       -3.3663948767
 C        -2.6468771595       -4.0678237077       -2.8155198048
 C        -3.4740112418       -2.7792800901       -2.4889346835
 C        -4.0543964993       -1.8697060953       -3.7227034520
 O        -1.0748792000       -3.0202857142       -4.4377580299
 O        -3.8692571472       -2.5246069453       -1.3489530316
 C        -3.4931127549       -4.8212147518       -3.9868610987
 C        -2.5052719153       -5.0655284974       -1.6778496095
 H        -2.7700565523        3.3557080449       -3.9706026257
 H        -2.7060160070        1.6787540966       -4.4172123242
 H        -4.2547302026        2.4884184761       -4.5220342478
 H        -6.9716917743        3.8173301365       -0.8028937319
 H        -7.9687089128        2.5360814748       -1.7110426798
 H        -4.6300342156        4.1312205887        0.1209168231
 H        -3.0706975938        4.2695651615       -0.7568872714
 H        -3.6207863692        2.7824041828        0.0494896130
 H        -5.5796449153        3.7102283838       -3.6979676787
 H        -6.0903800236        4.6006816730       -2.2869228659
 H        -4.5713502490        4.8978924856       -3.2622769092
 H        -8.6283083897        1.6520074249        0.3605595040
 H        -7.0649140260        1.6228403697        0.9473202446
 H        -5.9510506697        2.2019148884        2.9691492011
 H        -6.3422559103        1.9889215555        4.7037064858
 H        -7.2663089953        4.2415256955        4.1244583052
 H        -8.0834068690        3.0697189868        5.1089906387
 H        -9.0408074221        4.4645976202        4.5219739299
 H       -10.5928603046        3.7077288986        2.8477202706
 H       -10.2290275710        2.0103032432        2.0324962477
 H       -10.2828192911        2.1800430853        3.7608514527
 H        -6.7547204720       -0.4663113618        4.0976195370
 H        -5.3049660943        0.2149287659        4.7021544520
 H        -1.4525214717       -0.0132549163        4.4434163665
 H        -1.5212207955       -1.7827851483        4.5232318278
 H        -5.5136231995       -2.4577347609        4.4725180432
 H        -4.1000875369       -1.6021460499        5.1641018459
 H        -4.0081153814       -3.2393978327        4.4496969071
 H        -3.9984106446       -3.6433099516        2.1044518668
 H        -5.6278283873       -2.8219368550        1.8932402981
 H        -4.2750590701       -2.3256103787        0.9233154814
 H         0.4170476400       -1.8763054325        3.3228591734
 H        -0.0641622338       -0.7267139884        2.0976674559
 H         3.3693035093       -1.2686003592        1.2289407426
 H         3.6664947456        0.1606964602        2.2298287355
 H         3.9211757336        0.7813338490        4.1520204917
 H         3.8163528083        0.1259351628        5.8267557324
 H         2.7688735392        1.4960916543        5.4171449859
 H         2.6815679114       -1.7736748850        6.4752036689
 H         1.4465836547       -0.7034839723        6.6982440151
 H         1.0688318924       -2.0106338810        5.6748558485
 H         5.7069536096       -1.5496290679        1.4357455697
 H         5.4987044920       -1.8400106868        3.1891826151
 H         7.1198679624        2.1332177519        0.8893556315
 H         8.6117541863        1.9632297529       -0.0694507511
 H         7.7073216515        2.3255925932        2.7540941058
 H         9.3697252667        1.8256049765        2.6313088914
 H         8.4134455961        1.6566395078        4.0922074852
 H         9.4656933059       -0.9094195005        2.5008909883
 H         8.7756001643       -0.8228317974        3.9897806993
 H         7.9414550834       -1.8763098812        2.6649561613
 H         7.1812749933        0.5055948948       -1.7067789461
 H         5.7542665706        0.9611689578       -0.7191462169
 H         3.8621191840        0.6967012398       -5.4867215925
 H         5.4068918616        0.8624565933       -6.0169545404
 H         6.5430563769        3.0924024414       -5.4822383838
 H         7.2087895263        3.9550951301       -4.1430019647
 H         5.4529889163        3.9010747453       -4.3522972579
 H         8.2036021084        0.5354465589       -3.4964693356
 H         7.8409519200        1.0903357278       -5.1098776860
 H         8.5855712593        2.1832039167       -3.9146283711
 H         5.7255759064       -1.5169335510       -4.6083027526
 H         4.6113213917       -1.6671907743       -5.9850425437
 H         1.0027733146       -3.0884721333       -4.1367651089
 H         1.5357080326       -4.6922225439       -3.6282334858
 H         3.3965191895       -4.2430562321       -4.5920483777
 H         4.4580983746       -4.7786870045       -3.2554430613
 H         5.0327050593       -3.6891015972       -4.5463351278
 H         4.5794486549       -3.4413208612       -1.0945883839
 H         5.8418733274       -2.5286338039       -2.1091655421
 H         4.5337695577       -1.6020674108       -1.2898670756
 H         0.0171385039       -5.0433786897       -2.2512168301
 H         0.0837407573       -3.1891734932       -1.6851383754
 H        -4.7476099952       -1.1594924162       -3.2367904495
 H        -3.2195566830       -1.3882076935       -4.2122941316
 H        -4.5770279061       -2.4905842923       -4.4829246199
 H        -3.4775978187       -4.2377087940       -4.8888957525
 H        -4.4781503973       -5.0117257245       -3.6339209855
 H        -2.9990045042       -5.8553619534       -4.0036350101
 H        -1.8951760266       -5.9318285037       -1.9389756173
 H        -2.1117516237       -4.5246991997       -0.7914470033
 H        -3.4149379501       -5.5778889417       -1.3855074417
 Na       -3.6117350514       -0.4397909355       -0.0860138102
