155

 C        -3.7690185257        2.9894152720       -3.9220636760
 C        -3.9421458617        2.3092090317       -2.5638362073
 C        -4.9999941468        2.7830606738       -1.5642098570
 C        -6.1537772331        1.6917061599       -1.4981029366
 C        -7.6464144442        2.1120338555       -1.4634740278
 C        -4.3040968533        2.7996262068       -0.2000185274
 C        -5.5018299939        4.1814637336       -2.0269177374
 O        -3.2579171922        1.2889676715       -2.2996544924
 O        -5.9660834857        0.5233454212       -1.3453588860
 C        -8.3266349969        1.5173031400       -0.2645880277
 C        -8.0381901258        2.2769110842        1.0216346149
 C        -8.4138234319        1.7323733070        2.4588100358
 C        -7.1359144582        1.0194505997        2.8257755024
 C        -5.8071470665        1.6724282543        3.3888780579
 O        -7.3953345038        3.3483098443        1.0388387934
 O        -6.8901888749       -0.0581090389        2.2718653109
 C        -8.8746625614        2.7195022774        3.4824253898
 C        -9.5676659407        0.6586836753        2.2915085067
 C        -4.9153072119        0.4307842722        3.8606063098
 C        -4.2905711124       -0.2599729229        2.6908758515
 C        -3.9085057539       -1.6926227449        2.6077439923
 C        -2.4423914015       -1.6595036724        2.2077316812
 C        -1.4275334649       -2.3238876222        3.0451025839
 C        -4.2385873083       -2.4016494408        3.9069246589
 C        -4.8024101869       -2.2682232539        1.4049557228
 O        -4.1570596010        0.4384590378        1.6838938940
 O        -2.0176326602       -1.1579582806        1.1613949204
 C         0.0580065204       -1.7072754257        3.1673815372
 C         0.2990380370       -0.4435656168        4.0641121350
 C         1.7711708501       -0.3171259784        4.7233344126
 C         2.9216442822       -0.2790036511        3.6832713344
 C         3.3027554896        1.0653187143        3.0444499663
 O        -0.5365053414        0.3771368423        4.2813820189
 O         3.4039025499       -1.3542823761        3.3874536168
 C         1.6818458557        1.0627303697        5.5022483703
 C         1.8640755417       -1.4477580907        5.8003319248
 C         4.6477597870        0.9477805361        2.3631460556
 C         5.9319177787        1.1547096599        3.3286787409
 C         7.3528754431        0.4052206558        2.8944890034
 C         7.3487894702        0.2587383625        1.3615084416
 C         7.4428435446        1.4486002458        0.4522595828
 C         8.3632454855        1.3342712949        3.4486164854
 C         7.5553366983       -1.0819360034        3.5135559874
 O         5.9754158578        1.9631570442        4.1931510295
 O         7.1283504647       -0.8546562196        0.8817292997
 C         7.5466485288        1.1329337500       -1.0610216107
 C         7.4439929609        2.4455710838       -1.8694888312
 C         6.7964705574        2.2637263399       -3.3226455769
 C         5.4230420537        1.4102150272       -3.2936132049
 C         4.9027831623        0.9114379197       -4.6250667286
 O         7.9262400777        3.5173116009       -1.5319764027
 O         4.7379132827        1.2016953414       -2.3139035287
 C         6.5499422078        3.7499590132       -3.7039350826
 C         7.9149687258        1.5729443099       -4.1845511388
 C         4.7141735917       -0.5469588887       -4.5685258130
 C         3.4196724156       -0.9214493412       -3.7579575195
 C         3.4146300024       -2.1365716623       -2.8467835567
 C         1.8584272456       -2.5222489946       -2.4237868260
 C         0.8883995344       -2.9103704772       -3.4730701801
 C         4.0458603468       -3.3456466325       -3.4905729781
 C         4.1849977923       -1.7570204090       -1.4566026992
 O         2.4179080458       -0.2524796321       -3.9470921127
 O         1.6139790642       -2.6191418447       -1.2323192567
 C        -0.0916958696       -3.9851545391       -2.8623047678
 C        -1.3188231123       -4.2457666137       -3.8354474381
 C        -2.7825478381       -4.0933207335       -3.2098545692
 C        -3.0307720841       -2.6331627583       -2.8359139909
 C        -3.1645392003       -1.5136683434       -3.8689347657
 O        -1.0600613593       -4.7018555725       -4.8912351281
 O        -3.0977703418       -2.3581313368       -1.6622740500
 C        -3.8531979422       -4.5914799531       -4.1561382244
 C        -2.8183627944       -4.9312870164       -1.9642038217
 H        -3.2053983920        3.8852022094       -3.7583457047
 H        -3.2169211099        2.4678118766       -4.6427630297
 H        -4.8155570693        3.2180442416       -4.3228802248
 H        -7.9444342184        3.1774515591       -1.5993646331
 H        -8.0817777756        1.7574674981       -2.3660228643
 H        -5.0062564462        2.7283456644        0.6565207609
 H        -3.6727002039        3.7117743363       -0.1825093306
 H        -3.6277880757        1.9576340955       -0.0349040934
 H        -6.3040395004        4.0411262658       -2.7873494740
 H        -5.7936307131        4.7919477568       -1.2186197332
 H        -4.6572089814        4.6362689183       -2.4452314994
 H        -9.3810077855        1.5512445196       -0.4060972048
 H        -7.9889746006        0.4767756107       -0.1735280913
 H        -5.3209879287        2.2238758118        2.5712205410
 H        -5.9067574078        2.4796824195        4.1385428645
 H        -8.0012332019        3.0918796936        3.9728607702
 H        -9.6140645578        2.4096773469        4.3171910569
 H        -9.1948962292        3.7042496888        3.1100645864
 H       -10.4803333548        1.2846067748        2.3079333266
 H        -9.4627086521       -0.0039649015        1.4984995909
 H        -9.5973173825       -0.0044550582        3.1778077042
 H        -5.5301037365       -0.2540638457        4.3973638833
 H        -4.1204520360        0.7612861337        4.4679404841
 H        -1.7787680763       -2.5832122753        4.0484681033
 H        -1.4423855300       -3.3666803266        2.6487498197
 H        -5.2457339590       -2.6072227840        3.9051021189
 H        -4.0177742708       -1.8335060155        4.8675864861
 H        -3.6373444765       -3.2836680504        4.0097930186
 H        -4.2130607095       -2.6835055217        0.6059497191
 H        -5.5219499297       -3.0723704532        1.7283667577
 H        -5.4028851289       -1.4525770154        1.0270316118
 H         0.6111123600       -2.6743199529        3.5510937015
 H         0.3595913205       -1.3873000131        2.2097156707
 H         2.4953091092        1.2101258060        2.3575645278
 H         3.1103785584        1.8453268805        3.8715363182
 H         1.4773822860        1.9314867693        4.8023928458
 H         2.3795591439        1.3130935468        6.2952697956
 H         0.6483126967        1.0773247685        5.9946301187
 H         2.8614164973       -1.3574335880        6.3977851436
 H         1.0646078678       -1.3545324269        6.5121047080
 H         1.7089353621       -2.4532312626        5.4203794338
 H         4.7572882636        1.6217399544        1.4889692740
 H         4.8073788130       -0.0852393361        1.9744475857
 H         6.5439003333        2.0134102729        0.6598133249
 H         8.2876884582        2.0298777834        0.7191327573
 H         8.1422151748        2.3460883048        3.2868157661
 H         9.4470332201        1.2012010264        3.0888178175
 H         8.4764634149        1.2606603232        4.5338574908
 H         8.5994466806       -1.4092715088        3.4148762158
 H         7.3865890236       -0.8869770564        4.6062264212
 H         6.9093325598       -1.7413201976        2.9563748772
 H         8.5562094444        0.8423572750       -1.3591401556
 H         6.7736138003        0.4494993444       -1.2885689200
 H         3.8791769777        1.4175026489       -4.7408529619
 H         5.4939669754        1.2767461695       -5.4960238721
 H         5.8942755080        3.7605486425       -4.6183969426
 H         7.4139007939        4.3203871400       -3.8517854616
 H         5.9056637193        4.3570968044       -3.0554818087
 H         7.5775374614        0.5908245144       -4.5469093676
 H         8.1714944997        2.1444421466       -5.1201802309
 H         8.8840071312        1.3486521947       -3.6515342600
 H         5.5841573606       -1.1425097559       -4.3083996471
 H         4.4695670820       -1.0217355216       -5.5268503587
 H         0.3694799961       -1.9908480149       -3.7765424239
 H         1.4345585670       -3.3245902067       -4.3378370765
 H         3.7725765540       -3.3823618183       -4.5080423033
 H         3.5656898383       -4.2012118586       -3.0810446944
 H         5.1791102748       -3.4159603820       -3.4007868919
 H         4.4922792839       -2.6763228460       -0.9000967610
 H         5.0835812981       -1.1543307594       -1.7403110787
 H         3.5927060140       -1.1506119826       -0.8148665217
 H         0.3192657159       -4.9603425116       -2.7954647809
 H        -0.4418313202       -3.6402376567       -1.8366128991
 H        -4.2269804473       -1.2113924425       -4.0178901352
 H        -2.4153119384       -0.7512173895       -3.5680051560
 H        -2.7707810315       -1.8196681903       -4.8675840243
 H        -3.8201794785       -3.9670099165       -5.0506497450
 H        -4.8918841791       -4.4415121332       -3.7850576632
 H        -3.6178476527       -5.5443869093       -4.5600153330
 H        -3.0265951357       -5.9759093831       -2.2246437950
 H        -1.8733456754       -4.8697723897       -1.4381186852
 H        -3.5847466406       -4.5095513415       -1.2484924092
 Na       -3.3946696900       -0.1893904757       -0.6079410820
