155

 C        -3.1905594398        2.7059670606       -3.9133069585
 C        -3.6378642554        2.3445153611       -2.4850858030
 C        -4.8386369967        3.0664338040       -1.7908356516
 C        -5.9118848765        1.8314065076       -1.4427743989
 C        -7.4698962100        2.1317841725       -1.3682458783
 C        -4.4063816875        3.7196915468       -0.3810283954
 C        -5.5978398442        4.2091982004       -2.6542310893
 O        -3.1258986651        1.4318155468       -1.9358706867
 O        -5.5501698401        0.6643851337       -1.1980572742
 C        -8.1059684573        1.2056509573       -0.3101009236
 C        -7.9463926888        1.8925526224        1.0085273475
 C        -8.2421231878        1.1157509423        2.4199366222
 C        -7.0059590414        0.4409390632        2.8229806977
 C        -6.0158336481        1.1816399129        3.6826919421
 O        -7.3958309009        2.9490545889        1.0883541555
 O        -6.6744558350       -0.7107738089        2.5584627615
 C        -8.7887177184        2.1684799528        3.5517800200
 C        -9.3426778395        0.0997086929        2.1398192709
 C        -4.5024434372        0.6459945519        3.7507494374
 C        -4.0936046747       -0.0832506130        2.4891720769
 C        -3.6594185702       -1.6179936528        2.4592989542
 C        -2.1376534125       -1.6831980212        1.9691303991
 C        -1.1685829989       -2.6249973822        2.6192908613
 C        -3.7884487759       -2.4456786920        3.7646361299
 C        -4.4777041910       -2.2517144308        1.2538371301
 O        -4.1447249702        0.4778898133        1.3909252545
 O        -1.7029511184       -1.0258548825        0.9980113030
 C         0.2191947178       -1.8815276576        2.9417504036
 C         0.0061062208       -0.5713057967        3.8326945794
 C         1.2502322106       -0.1468624275        4.7390840636
 C         2.5754529516       -0.1605757667        3.8697429681
 C         3.2021332519        1.2743566730        3.5099748939
 O        -1.0682221084        0.0383881724        3.7245645749
 O         3.1372356516       -1.2214902290        3.6360592732
 C         0.9398161781        1.0850015800        5.5063967187
 C         1.4885026990       -1.2587323728        5.8408857014
 C         4.4061438915        1.2554322430        2.6154326528
 C         5.7858272597        1.3648599756        3.3276718825
 C         7.0052965997        0.5319944992        2.8680223262
 C         7.1272325138        0.5159854961        1.2788692644
 C         8.1560496697        1.2757664199        0.4399814007
 C         8.2708265496        1.2044589767        3.5638369708
 C         6.7193890388       -1.0089576280        3.3051845923
 O         5.8848883243        2.3103315274        4.0796659750
 O         6.4031119103       -0.2975096635        0.7626344507
 C         7.8703450771        1.0461397735       -1.0406111732
 C         7.3671760365        2.4117161710       -1.6873806437
 C         6.8739777174        2.3905293297       -3.1686819165
 C         5.5375237245        1.4545495932       -3.2110891839
 C         4.8641810091        0.9945279578       -4.5680879095
 O         7.4097930616        3.4114923346       -1.0468324153
 O         5.1520934828        0.9832166601       -2.1934332781
 C         6.5132442814        3.7020463083       -3.8237160323
 C         7.9077745947        1.6285507134       -4.0177953903
 C         4.5862570841       -0.5367712449       -4.5215734363
 C         3.3024185610       -0.6443743181       -3.6389227504
 C         3.2506355872       -2.0766489952       -2.7669449936
 C         1.8128363675       -2.2678725839       -2.1935290652
 C         0.8062935127       -2.7870547498       -3.2219375797
 C         3.7203229851       -3.3496239154       -3.5161800784
 C         4.3422896512       -1.8243622805       -1.5373720425
 O         2.3800138274        0.1080604332       -3.5725256439
 O         1.6345233268       -2.0171497971       -1.0221438279
 C        -0.1655944459       -3.7599839756       -2.5857912690
 C        -1.2395507674       -4.2145711610       -3.6709595432
 C        -2.8972546750       -4.1803157577       -3.3349382453
 C        -3.0591012880       -2.7396008878       -2.8093451892
 C        -3.1491887909       -1.5497547117       -3.8408083780
 O        -1.0143683800       -4.4298635687       -4.7917721262
 O        -2.9906131235       -2.5147994189       -1.5864248005
 C        -3.5510574095       -4.5174139186       -4.6742310873
 C        -3.1559874358       -5.2299164502       -2.2034002582
 H        -3.1242020185        3.7685538232       -4.0617036744
 H        -2.3491370737        2.1874919514       -4.2913026595
 H        -4.0183779326        2.3445616894       -4.5664651391
 H        -7.5552279127        3.1518827448       -1.0004466564
 H        -8.0033966852        1.9984659494       -2.3304976578
 H        -3.8338720040        2.9490006957        0.1972966974
 H        -5.2137989176        3.9617947006        0.3411654515
 H        -3.8665766717        4.6516183891       -0.5770601108
 H        -5.9637488191        3.7565486579       -3.5348052829
 H        -6.4492669795        4.5335413798       -2.0688357586
 H        -4.8995979194        5.0279056035       -2.9168955575
 H        -9.1954708360        0.8637764255       -0.4604513252
 H        -7.4791515776        0.2996339323       -0.2904109091
 H        -5.9877469340        2.2193269874        3.3838766958
 H        -6.3663553758        1.3142326656        4.7201310864
 H        -9.1306261810        3.1437721362        3.1194384467
 H        -8.2403424308        2.4800999833        4.4163850719
 H        -9.6383712100        1.8354573137        3.9944003920
 H       -10.3081020292        0.5347546519        1.9041064432
 H        -9.0146058340       -0.3544869011        1.2156603445
 H        -9.5516335941       -0.6349267237        2.9545414691
 H        -4.2809981735        0.0441955328        4.6991796813
 H        -3.8852352254        1.5102045330        3.7777020574
 H        -1.5363734159       -3.1679321531        3.5263131137
 H        -0.9876557963       -3.4081860630        1.8607351685
 H        -4.7887457234       -2.2643404060        4.1999748030
 H        -3.0581565713       -2.1613014986        4.4560885018
 H        -3.8021482452       -3.4856573395        3.5141293299
 H        -3.9656650349       -3.0814964619        0.7973529802
 H        -5.3496378388       -2.7214147558        1.7337895819
 H        -4.8212082120       -1.5044987429        0.5163615783
 H         0.8646949298       -2.6287714473        3.3431572441
 H         0.6536506093       -1.5426672804        1.9818975423
 H         2.2611147410        1.7569031549        3.1377219227
 H         3.4390366780        1.7683508422        4.4131396895
 H         1.0053606661        2.1383788498        5.0534932046
 H         1.6779511758        1.1195172369        6.2979868476
 H         0.0141093302        0.8905378613        6.1054079069
 H         2.4052212582       -1.2736130426        6.3578649193
 H         0.6316516208       -1.1856213608        6.4817152162
 H         1.3861674145       -2.1950602665        5.3359873282
 H         4.3302103381        2.2398165449        2.1193426766
 H         4.4076780522        0.4748762250        1.8454073901
 H         8.1802717780        2.2940252925        0.5906462832
 H         9.0765090438        0.8723313149        0.8037741606
 H         8.5443812314        2.2027386921        3.1910437569
 H         9.1352827394        0.6381750636        3.3558127022
 H         8.1611748177        1.2042895824        4.6420599455
 H         7.6298080795       -1.5533820725        2.9760129339
 H         6.3879678226       -0.9656324287        4.3541753780
 H         5.8492123546       -1.3244887772        2.7510767271
 H         8.8078944455        0.8036918304       -1.6321580097
 H         7.0846025694        0.2315895696       -1.2163957409
 H         4.0750359005        1.6515757138       -4.8805719745
 H         5.5430868004        1.1610617950       -5.4296373159
 H         6.0947310221        3.5538111954       -4.7825636769
 H         7.4212703167        4.2933745490       -4.1198165438
 H         5.9366720233        4.4315298884       -3.2792968307
 H         8.9064882822        1.4956891413       -3.5487469654
 H         7.6535508602        0.5706750714       -4.3193576742
 H         8.1009062542        2.1219751596       -4.9816564741
 H         5.3743316330       -1.0592973883       -4.0511506626
 H         4.2811315745       -0.8877797219       -5.5138639375
 H         0.2757297022       -1.9281998233       -3.5263053170
 H         1.2497788921       -3.2004878870       -4.0544667217
 H         3.4870435047       -3.3026033238       -4.5888196723
 H         3.2172492407       -4.1908587090       -3.0444123506
 H         4.7675942434       -3.5488851692       -3.4653849811
 H         4.1458681360       -2.5302799404       -0.7168251110
 H         5.3836295919       -2.1669558601       -1.8660601973
 H         4.2731749200       -0.7837515102       -1.1272482457
 H         0.4148786912       -4.6972885393       -2.2552811376
 H        -0.7266536783       -3.3165326427       -1.8428732175
 H        -3.5058898450       -2.0008964171       -4.8093920270
 H        -3.8555094793       -0.8523989578       -3.4237009765
 H        -2.2900091815       -0.9933044072       -4.0103190684
 H        -3.2757160453       -3.8249820108       -5.5441664811
 H        -4.6571174421       -4.4894707211       -4.5634657950
 H        -3.4112878666       -5.5116437310       -4.9486572627
 H        -2.4940482361       -6.1158935265       -2.2959112415
 H        -2.7310166211       -4.7324214039       -1.3181112103
 H        -4.2360444422       -5.4479574990       -2.1892417584
 Na       -3.2466934778       -0.3347543494       -0.6896281096
