155

 C        -2.5275165174        3.2561542136       -3.7586945229
 C        -3.3116583030        2.4581483634       -2.7407967083
 C        -4.7197985272        2.9380708281       -2.2450665785
 C        -5.7292728884        1.6650116263       -2.0491633661
 C        -7.0137443516        1.8918057100       -1.3111969109
 C        -4.2945217309        3.4854278784       -0.7714503079
 C        -5.4861229967        3.9903423383       -3.0672973465
 O        -2.8858656912        1.4399870276       -2.2326026895
 O        -5.4141305548        0.5771716921       -2.5278986286
 C        -7.2707305179        0.7973734459       -0.2447348920
 C        -7.2870235914        1.3438256793        1.1842482732
 C        -7.9024841569        0.5523763056        2.4232463696
 C        -6.7017496445       -0.1222279761        3.1468879582
 C        -5.5721000501        0.8865108644        3.6004154727
 O        -6.8619530504        2.4294768789        1.4217158132
 O        -6.6266296555       -1.3035925028        3.4935795844
 C        -8.7655328204        1.4876669246        3.3124843022
 C        -8.7692709417       -0.6316839323        1.9725417172
 C        -4.2886011339        0.0456399302        3.9074865221
 C        -3.9138237523       -0.6463610858        2.5885718980
 C        -3.2192572349       -2.0288567939        2.3775719127
 C        -1.6865925708       -1.9258331128        1.6273114236
 C        -0.4781745828       -2.7156691903        2.2262107275
 C        -3.2005762574       -2.8271226131        3.6367937779
 C        -4.0304163172       -2.8633871227        1.3292514866
 O        -4.1907371526        0.0130421932        1.5632436840
 O        -1.6557659736       -1.5461426137        0.4822714844
 C         0.5905961152       -1.8474603580        2.7732348959
 C         0.0646397485       -0.6271750747        3.5014049127
 C         0.9371746421        0.1761272319        4.5478774745
 C         2.4249804784        0.4738723915        4.0898795981
 C         2.5156865823        1.5722507065        3.0423379551
 O        -1.0532336412       -0.1607354255        3.2442247815
 O         3.2985549667       -0.2098532737        4.5640197049
 C         0.2237126260        1.4234252614        4.9862777424
 C         1.0681888112       -0.7683806693        5.8283962997
 C         3.7954477843        1.3969710835        2.2474189946
 C         5.0610225850        1.4220967462        3.1689066482
 C         6.3860410438        0.5142984073        2.8403153898
 C         6.6582719315        0.6618663786        1.3835146870
 C         7.8977506639        1.4555577177        0.9473458981
 C         7.5202687057        1.0934730606        3.7696206334
 C         6.0819458721       -0.9861044779        3.1980324515
 O         5.1587020302        2.2468311121        4.0505436913
 O         5.9067170572        0.1696768442        0.5797374427
 C         8.1505778951        1.5960070646       -0.5425892831
 C         7.2169410457        2.4839828765       -1.3196422675
 C         6.7969554363        2.2496126913       -2.8614712364
 C         5.4471753875        1.4518128251       -2.8980961479
 C         5.0826515119        0.8619792303       -4.3055708025
 O         6.9138655455        3.5468463452       -0.7718173494
 O         4.8600152582        1.2771089326       -1.8311525965
 C         6.3514410312        3.6664070564       -3.3725813187
 C         8.0121066454        1.6380553915       -3.5745026900
 C         4.6496433719       -0.6144948697       -4.2083135646
 C         3.3549434923       -0.8661427978       -3.3463328303
 C         3.4343346626       -2.0527827024       -2.4416571785
 C         1.9166806362       -2.2338733030       -1.7957615897
 C         0.7433395634       -2.2702966967       -2.8496733446
 C         3.5789314384       -3.2562874615       -3.4118116506
 C         4.5667815770       -2.0116766855       -1.4322863874
 O         2.4237992401       -0.1158563211       -3.4136004411
 O         1.6893547300       -2.3131960851       -0.6300859840
 C        -0.3950588098       -3.1869909954       -2.4498910989
 C        -1.2870610573       -3.4447301458       -3.6156680524
 C        -2.8371814388       -3.7404370845       -3.4934561808
 C        -3.3983735677       -2.3416340628       -3.1533468276
 C        -3.3956665356       -1.3100712399       -4.2396877315
 O        -0.8523204971       -3.3970317645       -4.7030067669
 O        -3.6124653255       -2.0727884838       -1.9572894648
 C        -3.3669565069       -4.3023536493       -4.8419385923
 C        -3.1558040635       -4.7402178329       -2.2835818742
 H        -2.4696653383        4.2984953068       -3.3968286366
 H        -1.5143239516        2.9018092562       -3.8708168633
 H        -3.1090166780        3.3511394662       -4.6273606233
 H        -6.8337633776        2.7988491005       -0.7401218201
 H        -7.8505198028        1.8706444809       -2.0075093065
 H        -3.1986825480        3.5278779179       -0.7743367922
 H        -4.6151405927        3.0131304236        0.1509156611
 H        -4.7073940502        4.4761920033       -0.6061205621
 H        -5.7612127025        3.6669779506       -4.0153460158
 H        -6.4256064672        4.3401473020       -2.6327147975
 H        -4.8949350949        4.9104835337       -3.1526561870
 H        -8.1003829211        0.1111067099       -0.3953259892
 H        -6.3900433309        0.0468940761       -0.3699861063
 H        -5.4305153548        1.6586667970        2.8025073114
 H        -5.9588992850        1.3234362811        4.4803081628
 H        -8.8352388976        2.5596461280        2.9550009068
 H        -8.3974594387        1.5230917368        4.3433158661
 H        -9.7678751610        1.2423254068        3.2979015990
 H        -9.7609765198       -0.3197118595        1.7630941274
 H        -8.4858311002       -1.4555596909        1.3041312903
 H        -8.8761212651       -1.2650568419        2.8230347723
 H        -4.5812465022       -0.8000711243        4.6760799376
 H        -3.3720323345        0.6208225393        4.2360726838
 H        -0.7403168369       -3.3542031047        3.0640993935
 H        -0.1249485715       -3.3789045555        1.3903058806
 H        -4.2670870443       -2.9826380428        4.0119701039
 H        -2.6179723444       -2.4408669914        4.4012395503
 H        -2.8378850495       -3.8165033398        3.3788712844
 H        -3.8981130043       -3.9369069525        1.6305753275
 H        -5.0510916139       -2.6552970641        1.4310607588
 H        -3.7149823994       -2.7616966094        0.2799803050
 H         1.2322935320       -2.4800624031        3.2622593520
 H         1.3140711932       -1.3591117925        2.0154630648
 H         1.6917764686        1.5200454128        2.3198723814
 H         2.5027195227        2.5171030527        3.5514965774
 H        -0.1853154533        2.0578134281        4.1266910162
 H         0.8326153201        2.0205854306        5.6779593960
 H        -0.7545335059        1.2047541078        5.4931710393
 H         1.4476341958       -0.1598625571        6.5734859351
 H         0.1385300400       -1.2854345062        6.1102689317
 H         1.7597845996       -1.5235867922        5.5247585807
 H         3.8621808343        2.0870257623        1.4019102826
 H         3.5516760151        0.4626254250        1.7339342923
 H         7.8928447507        2.3818221414        1.4762592305
 H         8.6863315427        0.8558874004        1.3188724189
 H         7.5835743554        2.1331526326        3.3439079858
 H         8.4108125146        0.6021107924        3.7065481717
 H         7.1503085169        1.1416445960        4.7970274694
 H         6.9981362251       -1.5553710643        3.4968581127
 H         5.4416161719       -0.8902288041        4.0644608215
 H         5.7100997394       -1.4509599615        2.2581289711
 H         9.1289279259        2.1670609096       -0.7206705007
 H         8.3725576575        0.5921538336       -1.0027933160
 H         4.1843710614        1.4417260701       -4.5376917149
 H         5.7681545901        0.8414334947       -5.1101142855
 H         5.8180203521        3.4919016160       -4.3117844437
 H         7.2069322897        4.3926619682       -3.4953225976
 H         5.6321121089        4.2229453327       -2.7765890364
 H         8.9853871469        2.1785844504       -3.4090651654
 H         8.0803633331        0.6478981555       -3.1890652648
 H         7.7839049061        1.5223882889       -4.6357184123
 H         5.4847333670       -1.3355825188       -3.8150918481
 H         4.5291606051       -1.0395740584       -5.1723862260
 H         0.3805169792       -1.2266072430       -3.0670326155
 H         1.1459455240       -2.6266064201       -3.7871549028
 H         3.0676754168       -3.1661838295       -4.3956693780
 H         3.1139178321       -4.1591343076       -2.9623607955
 H         4.5865397772       -3.3665562883       -3.5491134008
 H         4.3526572269       -2.8477310514       -0.7650710674
 H         5.6255417532       -1.9948591017       -1.7930954613
 H         4.4665074005       -1.0703025729       -0.8415301472
 H        -0.1879245614       -4.1530692416       -2.1399991386
 H        -1.0408524738       -2.8379138161       -1.6066564692
 H        -4.3657571906       -0.7258844753       -4.2374679739
 H        -2.7851667957       -0.4518628395       -3.9963433845
 H        -3.1661095088       -1.7542272617       -5.1521549752
 H        -2.9160906969       -3.8371692839       -5.7831416547
 H        -4.4341508241       -4.0781971112       -4.8816599644
 H        -3.1136189623       -5.3112212909       -5.0370766486
 H        -2.8711985806       -5.6981216303       -2.6878027225
 H        -2.6132276637       -4.4409469280       -1.3785777227
 H        -4.1663619092       -4.7120030887       -1.9638353424
 Na       -3.6923386986       -0.0921501689       -0.8621001798
