155

 C        -2.4061324251        3.2246211009       -3.5149083448
 C        -3.2894067249        2.3784859453       -2.6376605187
 C        -4.6737167204        2.8679064895       -2.0777526945
 C        -5.7202226529        1.6717663324       -1.9889713857
 C        -7.0322710233        1.8941779481       -1.2712905879
 C        -4.3676677566        3.4137499859       -0.7327365319
 C        -5.2605621478        3.9885396694       -2.9263468585
 O        -2.9257234171        1.3177496999       -2.2847839606
 O        -5.4528392475        0.6621579443       -2.6138295144
 C        -7.1532997105        0.7711746229       -0.1985349476
 C        -7.0031906941        1.2009513750        1.3029256975
 C        -7.7599142390        0.2741442546        2.4405433227
 C        -6.5140347513       -0.4169098131        3.1625824549
 C        -5.5387125481        0.4911127360        3.9102216581
 O        -6.3307484164        2.2089517153        1.4169141421
 O        -6.4458570182       -1.6590090891        3.0391413402
 C        -8.3316210369        1.3205839377        3.5471911841
 C        -8.8317864878       -0.7148150048        1.9785996473
 C        -4.2087295960       -0.1859800990        3.7716087116
 C        -3.9511669874       -0.6967022071        2.3992109466
 C        -3.1575292248       -2.1222735809        2.1167649460
 C        -1.7595592093       -1.8758247085        1.4265673889
 C        -0.4149568812       -2.4225512894        2.0661704863
 C        -2.9852081448       -2.8191265738        3.4987279338
 C        -3.9395963434       -3.1318442691        1.2330278293
 O        -4.1145692814        0.0154449678        1.4125265208
 O        -1.6186617366       -1.2125751784        0.4393247645
 C         0.4809398956       -1.2525478700        2.2703346520
 C        -0.2235757809       -0.2307466471        3.2717185329
 C         0.6480971121        0.3667496800        4.5394340243
 C         2.1385450256        0.4897930859        3.9954430786
 C         2.3421721253        1.3735187936        2.7505389249
 O        -1.3395901057        0.2625756848        3.0395939114
 O         3.0683364530       -0.0286851821        4.5765615808
 C         0.0553008663        1.6899611073        5.0031740132
 C         0.7362401194       -0.7976219507        5.6099182834
 C         3.7942874206        1.3113470333        2.1296984148
 C         4.8540849173        1.4531641246        3.1596298958
 C         6.1755141396        0.5163302337        3.0288670997
 C         6.6950419128        0.5651027754        1.5444468978
 C         7.5979803254        1.8061566640        1.0986381576
 C         7.2027367048        1.2142030996        3.9939076706
 C         5.9070866530       -0.9141307106        3.3940935647
 O         4.8052267299        2.4209903712        3.8889563064
 O         6.3091473076       -0.3478756425        0.8104969505
 C         7.9240306045        1.7187124105       -0.4182279516
 C         7.1178034286        2.7289014425       -1.2279727705
 C         6.7609520560        2.6009709761       -2.7211055543
 C         5.4909828848        1.5281155387       -2.9170764480
 C         4.8628579156        0.9560897898       -4.1631706683
 O         6.8309047136        3.8044096036       -0.6962363744
 O         4.9528842920        1.2158924670       -1.8486406641
 C         6.3787463569        3.8494939382       -3.4689252561
 C         7.9650442642        1.8430858982       -3.4489060916
 C         4.8261539433       -0.5547317497       -3.8910566475
 C         3.5011608881       -0.9582256476       -3.1227949344
 C         3.4458874623       -2.2742596598       -2.2986851511
 C         1.9347293639       -2.3724463531       -1.7550489025
 C         0.7928873494       -2.2888218033       -2.8122249551
 C         3.7673855887       -3.4397062289       -3.1839717172
 C         4.4576105807       -2.1524531121       -1.1026955830
 O         2.5837072494       -0.1856965079       -3.2945510657
 O         1.6489715473       -2.4806360712       -0.5894232615
 C        -0.4645651697       -3.1711974040       -2.4522732009
 C        -1.3642432072       -3.2131606773       -3.7258866577
 C        -2.8811329694       -3.7195188871       -3.6675932415
 C        -3.5723782281       -2.4887176998       -3.1710232185
 C        -3.5316906957       -1.3875898940       -4.1505452560
 O        -0.8445540463       -3.0354392669       -4.7966926525
 O        -3.9606514744       -2.2562204933       -2.0124163502
 C        -3.3694821020       -4.1571379505       -5.0592182319
 C        -2.8433357181       -4.8794404647       -2.6142147799
 H        -2.3936507832        4.2757987605       -3.1440005193
 H        -1.4027517568        2.9250371456       -3.4890466202
 H        -2.8461446749        3.2257666295       -4.5369099357
 H        -7.0254384086        2.8213004634       -0.7330317514
 H        -7.8597916388        1.8346454332       -1.9818816177
 H        -5.2493352154        3.4877916925       -0.0747407518
 H        -4.0013810677        4.4401022263       -0.7987353416
 H        -3.6707917903        2.7907609990       -0.2414310084
 H        -5.3510645894        3.7773014476       -3.9512537605
 H        -6.2991861927        4.2531277741       -2.6503846632
 H        -4.6216823568        4.9087927798       -2.9258912879
 H        -8.0873698909        0.2990260784       -0.3942199468
 H        -6.4297424246       -0.0688306247       -0.3507960255
 H        -5.6383282798        1.3877550970        3.2806875495
 H        -5.8357187467        0.6592480127        4.8942567307
 H        -7.9747526051        1.2473106961        4.5885491924
 H        -9.4664920061        1.2735289937        3.5345544746
 H        -8.0572698638        2.2896776037        3.2800495502
 H        -9.7863218643       -0.3028833077        1.8520449339
 H        -8.4852831622       -1.1343316890        1.0357161507
 H        -9.0665627981       -1.6004004508        2.5737980739
 H        -4.0552072751       -1.0266484288        4.5840580739
 H        -3.4553371385        0.5866554314        4.0407384057
 H        -0.6693484445       -2.9653506170        2.9815660182
 H         0.1229324586       -3.2387198315        1.5377655312
 H        -3.9562883851       -3.0149584133        4.0575049406
 H        -2.3952952205       -2.1380406866        4.0909881969
 H        -2.4406816520       -3.7762505295        3.5240070869
 H        -3.3477988800       -4.0266321775        0.9818908695
 H        -4.6884114437       -3.5243233749        1.8642688694
 H        -4.3976377277       -2.6528234779        0.3670270847
 H         1.4048153076       -1.4970479048        2.6572211758
 H         0.6714364793       -0.8285698535        1.2025851057
 H         1.6619025692        1.2707539754        1.8961737763
 H         2.3376362635        2.3569170778        3.0258269773
 H         0.1751129313        2.6281457629        4.3581945751
 H         0.4380300906        1.9151317110        5.9445714131
 H        -0.9818350659        1.4971893863        5.3250529153
 H         1.5860980312       -0.5564924991        6.2693223922
 H        -0.2524550234       -1.0202976798        5.9885813198
 H         1.1070382757       -1.6960096146        5.0977175488
 H         3.8761679802        1.9247393880        1.2046375003
 H         3.8678200404        0.2663519673        1.8049949048
 H         7.0444063867        2.6777798822        1.2512406893
 H         8.4650742637        1.8006958070        1.6605813677
 H         7.4550694555        2.2060842058        3.6088904480
 H         8.0824536278        0.6111034395        3.9367774999
 H         6.7422844880        1.1417069790        5.0087092795
 H         6.7696628200       -1.5062588874        3.0037049028
 H         5.7598438639       -0.8561643619        4.4862161280
 H         4.9948024194       -1.3300469603        2.9310295087
 H         8.9885134714        1.9498201855       -0.5361527237
 H         7.7673667890        0.7364723995       -0.8291500574
 H         3.7549332251        1.1065598922       -4.2062595032
 H         5.4392715285        1.2036611527       -5.0374144273
 H         6.2775323363        3.6587207384       -4.5276934052
 H         7.1784303203        4.6668898600       -3.3180289836
 H         5.4393384029        4.2531676420       -3.0552699225
 H         8.9329618133        2.2630269668       -3.2126530501
 H         7.9374316162        0.8383756932       -3.1084948451
 H         7.7790149381        1.8267202485       -4.4773574116
 H         5.6531091783       -1.0438334002       -3.3150463903
 H         4.8630881811       -1.2596151391       -4.6363921754
 H         0.5330804207       -1.2766959648       -2.9302050286
 H         1.1423579701       -2.5814284598       -3.7544378768
 H         2.9658045379       -3.4564645953       -3.9816266332
 H         3.8007557729       -4.4084553735       -2.6196433867
 H         4.6761477375       -3.2729245296       -3.6702290204
 H         4.3689398057       -2.9285248130       -0.4041961484
 H         5.5444974045       -2.1356796708       -1.3568546394
 H         4.1835302944       -1.2731520459       -0.6600203574
 H        -0.1551350373       -4.1588085591       -2.2452627340
 H        -1.1220394253       -2.8189098189       -1.6234451161
 H        -3.8549819563       -0.3550064173       -3.8666834730
 H        -2.4594181324       -1.2168618878       -4.5659703498
 H        -4.1009676373       -1.7487787131       -5.0489197301
 H        -3.3392637960       -3.2865680098       -5.8141356405
 H        -4.4337062986       -4.4088101617       -5.0096451368
 H        -2.9070862274       -4.9707084490       -5.4812341196
 H        -1.8632217678       -5.3386922289       -2.6361674220
 H        -2.7881240753       -4.2988814722       -1.6881235059
 H        -3.6764239404       -5.5360179593       -2.5482318867
 Na       -3.1105032713       -0.3633240265       -0.8453282239
