155

 C        -2.5127584039        3.3264328059       -3.4644831174
 C        -3.1155100530        2.3943944715       -2.4771301440
 C        -4.5312690184        2.8181456568       -1.7904797776
 C        -5.5288381119        1.6839162021       -1.6252365151
 C        -6.9714525869        1.9744854510       -1.1432766800
 C        -4.1201233193        3.4294053330       -0.3977332916
 C        -5.2809402634        3.8923911015       -2.6648585921
 O        -2.5702340186        1.3913371473       -2.2386368375
 O        -5.3437491310        0.5856169780       -2.1096387775
 C        -7.5760185054        0.8398077396       -0.2594254153
 C        -7.2072764810        1.1301295188        1.2639065237
 C        -7.7662094599        0.2752491260        2.4945771940
 C        -6.4065153640       -0.4766498084        2.8544478541
 C        -5.3714027773        0.3005096028        3.7820677357
 O        -6.4390546163        2.0430174156        1.4601552478
 O        -6.3611547118       -1.6686306015        2.5734627850
 C        -8.3792330481        1.2837846298        3.4684870614
 C        -8.8124077136       -0.8195325742        1.9903263005
 C        -4.0629514141       -0.4338072260        3.7283858057
 C        -3.7748532159       -0.8889604811        2.3363316909
 C        -3.0230396215       -2.3650614886        1.9715887405
 C        -1.6445873922       -1.9752823574        1.0966545387
 C        -0.2726678737       -2.1873407106        1.7421250492
 C        -2.5928859747       -3.2181256448        3.1791410531
 C        -4.0312612476       -3.1999572177        1.1140620022
 O        -3.9038697850       -0.1330561825        1.3818177486
 O        -1.7303137144       -1.6856738270       -0.0737068623
 C         0.5349989728       -0.8912149780        2.0311340993
 C        -0.2305329363        0.0785921344        3.0173131378
 C         0.4829624514        0.5176351419        4.3227245309
 C         2.0203471612        0.5858332506        4.0808930826
 C         2.4131541346        1.6153284015        3.0018734707
 O        -1.4081727002        0.3795997149        2.8702457580
 O         2.8311843314       -0.2126324383        4.5805201167
 C        -0.0041046269        1.9160306825        4.8969617160
 C         0.3265842008       -0.5542216276        5.5300831784
 C         3.7293859568        1.1963591645        2.2647728168
 C         4.9570544473        1.6545404122        3.0588223814
 C         6.1716631948        0.7079469871        3.1516093576
 C         6.7563484894        0.5589877343        1.6780943643
 C         7.2458659980        1.9188830187        1.1566800659
 C         7.1901941030        1.3092214276        4.2033520552
 C         5.7900981055       -0.7712800768        3.6573681248
 O         4.9666996724        2.8130813371        3.3709957119
 O         6.8525716759       -0.5423583353        1.1268953578
 C         7.6154299615        1.8614566175       -0.2834636570
 C         6.9615349087        2.9912078224       -1.0924151042
 C         6.8039953299        2.6390914000       -2.6103707738
 C         5.6547533949        1.5109604349       -2.6683067832
 C         5.1855585601        0.8822588268       -3.9720157522
 O         6.6626458718        4.0345228257       -0.6346340480
 O         5.0802260171        1.3204688558       -1.5982710346
 C         6.1281319395        3.7295651181       -3.4715225050
 C         8.1219931009        2.1746024400       -3.2364452172
 C         4.9003446148       -0.6875831725       -3.7539424801
 C         3.5463489605       -0.8949379443       -3.0191246849
 C         3.3100244435       -2.2039904974       -2.1838091515
 C         1.8370060152       -2.5089281777       -1.7989678233
 C         0.7742377866       -2.3301170835       -2.8433527089
 C         3.9215334959       -3.4396291060       -2.9114495098
 C         4.2420243420       -1.8080829383       -0.8810404104
 O         2.6831726735       -0.0263482136       -3.0238208962
 O         1.6329710112       -3.0151383889       -0.7013296534
 C        -0.4163668079       -3.3189699701       -2.6236577389
 C        -1.2484192129       -3.2757046685       -3.9018681235
 C        -2.7611383369       -3.8721603300       -3.8163671857
 C        -3.5007224481       -2.5211026925       -3.3687417618
 C        -3.8593121173       -1.4431484063       -4.3207601606
 O        -0.9005568751       -2.8765506386       -5.0326180489
 O        -3.5834076899       -2.3387054022       -2.1463120451
 C        -3.2630779360       -4.2698150329       -5.1507976962
 C        -2.8012486398       -4.9714664986       -2.7486263846
 H        -2.9704150186        4.3107278962       -3.4391326757
 H        -1.4661637053        3.4216051755       -3.3092350454
 H        -2.6312661107        2.8388627024       -4.4949609425
 H        -6.9786648965        2.9523954511       -0.7146800338
 H        -7.6038789858        2.1075929618       -2.0451850675
 H        -3.0488479134        3.3859087131       -0.2801875596
 H        -4.7065191723        2.9605087872        0.4180210665
 H        -4.3571231341        4.4828848871       -0.3063898464
 H        -5.2679329131        3.7186035815       -3.7291567341
 H        -6.3176216408        4.1005083900       -2.3448302184
 H        -4.7975322911        4.9005841473       -2.5956987273
 H        -8.6168207282        0.8962876141       -0.3627041882
 H        -7.2649569503       -0.1287166043       -0.6319291556
 H        -5.3759341723        1.3409613385        3.4082480049
 H        -5.9126944802        0.3063444914        4.6948369231
 H        -9.3976229188        1.1631700416        3.4243949252
 H        -7.9892296685        2.3456861935        3.3872059943
 H        -8.0576324575        0.9788857498        4.4557986925
 H        -9.5612466237       -0.4136271139        1.3163317858
 H        -8.4034453725       -1.6336710400        1.4784391174
 H        -9.4946030664       -1.0787291786        2.8570412128
 H        -4.0607199088       -1.3225628019        4.4169974321
 H        -3.1494697128        0.0955713728        4.1180513157
 H        -0.2472919304       -2.9349210827        2.5691008675
 H         0.2127893757       -2.7872325768        0.9575271329
 H        -3.4251142135       -3.5563865238        3.7861878090
 H        -1.9237190928       -2.6543408280        3.8572633143
 H        -1.9416322996       -4.0244652408        2.8746280715
 H        -3.7320628157       -4.2597839280        1.1384632042
 H        -4.9912726816       -3.1480712804        1.6508488182
 H        -4.2410362460       -2.8027548016        0.1219436989
 H         1.4756128765       -1.1387444215        2.4159169417
 H         0.6298237212       -0.2154204649        1.1285860468
 H         1.7298400742        1.8946951065        2.1816750412
 H         2.6992333262        2.4861888386        3.4722047432
 H         0.2191218089        2.7313576812        4.2427897575
 H         0.4756783412        2.1116968860        5.7963877131
 H        -1.0207432992        1.8757188884        5.1480692129
 H         1.2334772615       -0.4334419404        6.2644411200
 H        -0.6862515836       -0.4757897424        5.8749903331
 H         0.5954074007       -1.4778406163        4.9831425974
 H         3.9318692189        1.5939143251        1.2440471352
 H         3.6463293149        0.0931516447        2.2142050744
 H         6.4707998832        2.6602859499        1.3094221686
 H         8.0973338320        2.1561717940        1.7962327449
 H         7.2922906491        2.3601441196        4.0350500930
 H         8.1307129853        0.7004431850        4.0835998025
 H         6.6820690714        1.1992529112        5.2121397541
 H         6.7422305632       -1.2691447265        3.9207827536
 H         5.1055318541       -0.6177557700        4.4926416750
 H         5.1658301272       -1.3005115174        2.9818342415
 H         8.6658212115        2.0474902409       -0.3095231473
 H         7.4090666342        0.9075661732       -0.6716667745
 H         4.3057101844        1.5616575475       -4.1806927541
 H         5.8699039800        0.8249147706       -4.8126097128
 H         5.9262389443        3.2704649132       -4.3800351019
 H         6.8230525927        4.5136438432       -3.8007435589
 H         5.2240866396        4.1100410521       -3.0374919010
 H         8.8719059846        2.9713169004       -3.3859579203
 H         8.4972726654        1.3881895081       -2.5415471109
 H         7.8800081840        1.7202406452       -4.1856494830
 H         5.6958731389       -1.1609790959       -3.1602020842
 H         4.9375020746       -1.3097021567       -4.6074477469
 H         0.4476040949       -1.3332608314       -2.8202017793
 H         1.3088223921       -2.4369133515       -3.7485432036
 H         3.7310866674       -3.5183106727       -3.9933846486
 H         3.6435251225       -4.3114080683       -2.3348285098
 H         4.9850006337       -3.4339648234       -2.7955088492
 H         3.8215745698       -2.0823137249        0.0572797378
 H         5.1669269891       -2.4203506851       -0.9662790276
 H         4.4139491021       -0.7941351248       -0.8051372792
 H        -0.0009583214       -4.3144901006       -2.5248906332
 H        -1.0045845089       -2.9298010435       -1.7920417309
 H        -3.2980143935       -0.5292255368       -4.2158069034
 H        -3.8179477574       -1.8312368641       -5.3961053662
 H        -4.9525329138       -1.1822639711       -4.0671739579
 H        -2.8970669653       -3.7558535844       -6.0404165424
 H        -4.3309752772       -4.3426625037       -5.1548804950
 H        -3.1044983449       -5.2960601109       -5.2310964905
 H        -2.2348087949       -5.8931162176       -3.0770554540
 H        -2.2324253904       -4.6536836551       -1.8623620442
 H        -3.8137479351       -5.3576942864       -2.5212153841
 Na       -4.0578742376       -0.5398230026       -0.8445753492
