155

 C        -2.4203369262        2.9024269781       -3.3446237899
 C        -3.2977624455        2.3000780212       -2.2315738053
 C        -4.6239611289        2.8893312755       -1.6272702609
 C        -5.8277380919        1.8926647713       -1.5769911272
 C        -7.2554193427        2.3469728218       -1.0632168785
 C        -4.4535417377        3.1893176627       -0.0459088579
 C        -4.9907668361        4.1905631680       -2.4035010691
 O        -2.8553026827        1.1951809407       -1.9147515053
 O        -5.7091368301        0.6552186679       -1.6707711456
 C        -7.9371725589        1.2876428119       -0.1592350844
 C        -7.4223918677        1.3927442235        1.3041563817
 C        -7.8173217561        0.2691961679        2.2889508714
 C        -6.6518296459       -0.6415778396        2.6509559165
 C        -5.5050574050        0.0367860862        3.6922467882
 O        -6.6979648534        2.2783885837        1.7062434642
 O        -6.5860493421       -1.7830063579        2.2653493255
 C        -8.3248264445        1.0708713734        3.6540083090
 C        -8.9501435240       -0.6915777842        1.7258340288
 C        -4.1800067039       -0.8378287828        3.6066589848
 C        -3.7181571963       -1.1513922688        2.1909550846
 C        -2.6940839698       -2.4719324117        1.8857806540
 C        -1.4860418022       -1.9627024046        1.1210679374
 C        -0.0992661458       -2.1105604765        1.7358697487
 C        -2.3076526892       -3.2820840047        3.1584222876
 C        -3.7463008713       -3.4386994143        1.0497995566
 O        -4.0865856043       -0.5053774607        1.2143655885
 O        -1.6461262390       -1.3849237588        0.0624025651
 C         0.5457903484       -0.6876267298        1.8412254711
 C        -0.3628904957        0.1499177010        2.7475631261
 C         0.3368558248        0.6515499135        4.1225576595
 C         1.9087774115        0.7065104439        4.0143818790
 C         2.4685060629        1.7596483550        3.0697470299
 O        -1.5404850634        0.2536298427        2.5117618637
 O         2.5048342332       -0.1101048647        4.7332311667
 C        -0.2283681053        1.9872614602        4.5826280341
 C        -0.1121476529       -0.5231114165        5.1804550958
 C         3.7777378200        1.2158482637        2.4142234892
 C         5.1014173085        1.9087809229        3.1054149493
 C         6.3559775868        0.8583756825        3.2637105693
 C         7.1285304476        0.9156430562        1.9208855908
 C         7.7044003468        2.2560339129        1.3123567984
 C         7.2089261302        1.3726562516        4.3888101954
 C         5.9677428086       -0.5859944580        3.6131455712
 O         5.0907083836        3.0114099114        3.5775690861
 O         7.2940025435       -0.0812241551        1.2825023560
 C         7.9597209622        2.1320054358       -0.1922761184
 C         7.0799463707        3.0564997418       -0.9692674969
 C         6.7140869257        2.6545063903       -2.5110876005
 C         5.6732491020        1.4452432107       -2.5561158661
 C         5.3390744117        0.7918020042       -3.9209050626
 O         6.5740896559        4.0499275885       -0.5070967653
 O         5.1362158110        1.0135993552       -1.5789497072
 C         5.9441969812        3.8341575310       -3.1353024499
 C         8.0297290145        2.2910511299       -3.3238850406
 C         4.8552477450       -0.7265792027       -3.7742024496
 C         3.5816717959       -0.8986178637       -2.9090843806
 C         3.3871627765       -2.1659066956       -1.9261218232
 C         1.9417484678       -2.6683103838       -1.9030286144
 C         0.9718251311       -2.4398111853       -3.1282985355
 C         4.2178578228       -3.3498656281       -2.4468344402
 C         3.9377528115       -1.8653104373       -0.4795495215
 O         2.6480190767       -0.1299657716       -3.1038513245
 O         1.4541590952       -3.2264618082       -0.9362220228
 C        -0.3353360612       -3.3124938470       -2.9082670749
 C        -1.1179240368       -3.4109691860       -4.2195278779
 C        -2.6345452560       -3.8845877031       -4.0403431982
 C        -3.5325368104       -2.7276170112       -3.5092676538
 C        -4.0408873548       -1.5933326067       -4.4062098795
 O        -0.8774489813       -2.9017683793       -5.2792033537
 O        -3.7533213958       -2.6682336909       -2.3037768324
 C        -3.0097422647       -4.4254717820       -5.4394350069
 C        -2.6831551316       -5.1938952371       -3.0669239379
 H        -1.7016504370        3.4640230487       -2.8096331364
 H        -2.0153041520        2.0789562755       -3.9189150152
 H        -2.9193490788        3.5622850490       -4.1231528285
 H        -7.2853957421        3.3814659917       -0.7456139826
 H        -7.8180800064        2.4228779323       -2.0336539237
 H        -5.2261422663        3.9282231863        0.1740424717
 H        -3.4201616974        3.5788552846        0.2371003143
 H        -4.5444078533        2.2127554621        0.4568593663
 H        -5.3796949497        3.9779817413       -3.3928317555
 H        -5.6516469359        4.8816345320       -1.9228204452
 H        -4.1060705833        4.8021049431       -2.5657227118
 H        -8.9943727369        1.3696857357       -0.2232362409
 H        -7.6152373448        0.2901424366       -0.4461049311
 H        -5.4532903307        1.1647996042        3.5299043077
 H        -5.9258933621       -0.1450151327        4.6884358567
 H        -8.0045058579        2.0312386093        3.4102098996
 H        -7.8338152959        0.6704656189        4.5353163197
 H        -9.4486780630        1.0043678456        3.7919712372
 H        -9.8152641693       -0.0215657249        1.4884144776
 H        -8.7212913975       -1.0332032470        0.7330823823
 H        -9.1292157547       -1.6129257813        2.4305474279
 H        -4.3309045240       -1.8092828237        4.0392235645
 H        -3.3108905895       -0.4354434363        4.2346127153
 H        -0.3831450117       -2.5943960667        2.7112633361
 H         0.5854022880       -2.7397215354        1.1966481934
 H        -3.0923184412       -3.7253625279        3.6964841200
 H        -1.7344821922       -2.6800622788        3.9177872293
 H        -1.6840402810       -4.1106781919        2.8406545833
 H        -3.3044539487       -4.4037078512        0.8797294408
 H        -4.6519362556       -3.4590339399        1.6941829668
 H        -4.0399459449       -3.0581569742        0.0872952762
 H         1.5364250461       -0.7386099945        2.2301818239
 H         0.4761334347       -0.2483498209        0.8238261730
 H         1.7871638022        1.9608477799        2.1550575141
 H         2.7089973702        2.7181664512        3.4691767392
 H        -0.1114673293        2.8299369611        3.9769654980
 H         0.3776060564        2.1316210918        5.5033299546
 H        -1.2636700556        1.9533763581        4.8564101250
 H        -0.5398810193        0.1364935538        5.9721240525
 H        -0.9510445770       -1.0248871886        4.7176845117
 H         0.7624451113       -1.1812311726        5.3626047661
 H         3.7905061969        1.4869252318        1.3259452041
 H         3.8948767500        0.1321106956        2.4047922855
 H         7.0013063276        3.0784385440        1.5588626798
 H         8.6647285598        2.5148978370        1.9173257761
 H         7.4826983033        2.3519216097        4.1952136091
 H         8.0659526520        0.6259220378        4.4391160641
 H         6.6410023127        1.3846525048        5.3131926399
 H         6.8959612467       -1.1940666352        3.7106565036
 H         5.3525739825       -0.6841493218        4.5398290728
 H         5.4206059302       -0.9432935515        2.7702098375
 H         9.0030176651        2.4257525714       -0.4151941788
 H         7.7856584686        1.0827030107       -0.4357087307
 H         4.5767744518        1.2920064561       -4.5826912459
 H         6.2772514326        0.8937758023       -4.5094090984
 H         5.9198141755        3.7148314026       -4.1948292413
 H         6.4573405529        4.7745850676       -2.9025620456
 H         4.9060749272        3.8254540218       -2.7862304132
 H         8.4879617354        3.2125271139       -3.7247489162
 H         8.7944036046        1.7659760474       -2.6444597361
 H         7.9356216402        1.6309787798       -4.2065841843
 H         5.5266776772       -1.2909479886       -3.1722492264
 H         4.5479271537       -1.2088810655       -4.6808059701
 H         0.6858574419       -1.4015837367       -3.1592027645
 H         1.4877005464       -2.7212349614       -4.0749255799
 H         3.9761877535       -3.6130928129       -3.4864037370
 H         4.1031225266       -4.2197952667       -1.8431120077
 H         5.2976275689       -3.0794046932       -2.4164770435
 H         4.5084098476       -2.7164262021        0.0117388652
 H         4.6056618984       -0.9889795537       -0.5270185955
 H         3.1130795165       -1.6533753655        0.2463059115
 H        -0.0442526714       -4.3413920993       -2.4701910098
 H        -0.9661090286       -2.7166363179       -2.2650601829
 H        -3.5006436587       -1.4106862553       -5.2872161239
 H        -5.0279609712       -1.9192299832       -4.6441609816
 H        -4.0194848692       -0.6145086149       -3.8869933638
 H        -3.0956661716       -3.6576847514       -6.1355241292
 H        -3.9804422117       -4.9735489086       -5.4147578107
 H        -2.1889262153       -5.0893214234       -5.8373286143
 H        -1.9147832959       -5.9671792837       -3.2495861932
 H        -2.5492030007       -4.9508410343       -1.9982019582
 H        -3.6205140022       -5.7817414949       -3.1039475772
 Na       -3.4827885458       -0.6827145219       -0.9726856996
