155

 C        -2.7513113250        3.1022661882       -3.3332318689
 C        -3.4543226548        2.2405687027       -2.3494430957
 C        -4.4112296870        2.8396094512       -1.3093504527
 C        -5.6083946229        1.8720530632       -1.0905470482
 C        -7.0149732564        2.4200792013       -0.6717938535
 C        -3.6969458379        2.8427661419        0.1475830625
 C        -4.8909600278        4.2920737162       -1.6904000095
 O        -3.1972864885        1.0740965286       -2.2300763374
 O        -5.4515995569        0.6521113470       -1.0312855744
 C        -7.9282481150        1.4094495439        0.0458018548
 C        -7.6887402827        1.4611852852        1.5869568433
 C        -8.2029642680        0.1355831238        2.3432491359
 C        -6.9502891863       -0.7771788583        2.3311886266
 C        -5.6867314664       -0.2102127776        2.9953685431
 O        -7.0881449112        2.3364224358        2.1356926651
 O        -7.1184595712       -1.9427867254        1.9443917923
 C        -8.6252579642        0.6119894069        3.8613347710
 C        -9.4973634605       -0.4556688023        1.7944758557
 C        -4.6438014249       -1.3200478232        3.1644097506
 C        -3.9662218215       -1.7418092537        1.8161383357
 C        -2.7721001716       -2.7339054942        1.6787878897
 C        -1.6008832858       -2.0507587816        0.9345259829
 C        -0.0644365477       -2.1508230688        1.4101407402
 C        -2.3843674764       -3.0417327250        3.1536993653
 C        -3.4497761892       -3.9309712961        0.8896813410
 O        -4.4220300763       -1.2279013233        0.8271202647
 O        -1.7728697386       -1.2640695856       -0.0031857576
 C         0.4944425037       -0.7861455356        1.9152457041
 C        -0.3369345241        0.2945715141        2.7548255871
 C         0.4151813167        1.0335742851        3.9643926149
 C         1.9595527111        0.9201074736        3.8136029247
 C         2.6502917538        1.8459959180        2.8774037210
 O        -1.4776450602        0.5466059728        2.4078026349
 O         2.6662563612        0.1999700777        4.4929912224
 C        -0.0080233932        2.4778405050        4.0739278210
 C        -0.1305428642        0.0915440043        5.1059278706
 C         4.0720520117        1.4735299056        2.4910416509
 C         5.2364992469        2.0587949878        3.4389405938
 C         6.4952479109        1.2555110247        3.4330890101
 C         7.1856607692        1.2087760801        1.9850782181
 C         7.6845173168        2.5935256520        1.5380838623
 C         7.4384548231        1.9117308991        4.3997961537
 C         6.3214084290       -0.1988533441        3.8277839146
 O         5.0854611350        3.0907607370        4.0502611169
 O         7.2993121765        0.1777787609        1.3636078986
 C         8.0970272627        2.7437078560        0.1038332376
 C         6.8199846754        3.2212903168       -0.7234224442
 C         6.6433179014        2.7901537326       -2.2386658370
 C         6.0513175423        1.3150007155       -2.3055657694
 C         5.0556124797        0.8058335068       -3.3359009244
 O         5.9606752660        3.8798948791       -0.2434324859
 O         6.2157121227        0.5097293693       -1.4083113172
 C         5.6666877497        3.7974404675       -2.9067649979
 C         8.0590692406        2.7491160078       -2.8865649598
 C         4.9068928566       -0.7580837223       -3.3883436817
 C         3.5237993899       -1.0877447251       -2.7765177079
 C         3.4013347090       -2.2709843788       -1.8365684800
 C         1.8811325670       -2.7799207550       -2.0182069661
 C         1.2769159782       -3.0304491865       -3.3455977786
 C         4.3662642677       -3.3294494162       -2.2883346463
 C         3.5906579255       -1.7681676930       -0.4202332166
 O         2.5867125127       -0.3464420343       -3.0631472182
 O         1.3606299924       -3.1797939539       -0.9849727069
 C        -0.2273348294       -3.4801878309       -3.1375462653
 C        -0.9973641499       -3.4861146742       -4.4812072028
 C        -2.4893827532       -4.1446456580       -4.4830249878
 C        -3.2506069313       -2.9159387584       -3.7867220228
 C        -3.8072359633       -1.7473598788       -4.5153360015
 O        -0.6789721986       -2.8816274069       -5.4897558816
 O        -3.4761345575       -2.9573701952       -2.5770838601
 C        -3.0646218965       -4.2340348016       -5.8920171861
 C        -2.5952986016       -5.4328996817       -3.5924233822
 H        -1.6541734601        3.2020989254       -3.0960019272
 H        -2.8986383872        2.6541982024       -4.2903572770
 H        -3.2548753313        4.0881605902       -3.2251678795
 H        -6.7673842433        3.2631947553       -0.0014159824
 H        -7.5024397234        2.8581649975       -1.5191671976
 H        -2.6803116390        3.2194197740       -0.0109701578
 H        -3.7936591571        1.8054611147        0.5419575178
 H        -4.2806541474        3.5795493935        0.6950877718
 H        -5.2542913286        4.3641975539       -2.6780137068
 H        -5.8137946069        4.4755068107       -1.1016854201
 H        -4.1049482066        5.0674127564       -1.5013617637
 H        -8.9274814238        1.5078148982       -0.2734724014
 H        -7.5463911772        0.4277049994       -0.0998639611
 H        -5.4018653806        0.5839560837        2.3215505367
 H        -5.9652746718        0.2565907921        3.9427092108
 H        -9.0994307524       -0.2465072122        4.1980098050
 H        -9.5116126008        1.2694372657        3.6332607790
 H        -7.8256128094        1.0664050345        4.3579736012
 H        -9.9165051311        0.1717948781        1.0484876759
 H        -9.2241389905       -1.4735834103        1.4929570649
 H       -10.2545075317       -0.6177982542        2.6035158121
 H        -5.2070452268       -2.3039646013        3.5636429106
 H        -3.8561016694       -1.0300343643        3.8898815634
 H        -0.0406691681       -2.8705040841        2.1791855469
 H         0.5897212547       -2.4182087217        0.5213627402
 H        -3.3009918250       -3.3713348412        3.7514928352
 H        -1.9171785813       -2.2172574438        3.5881143294
 H        -1.7517384994       -3.9379948248        3.1955179062
 H        -2.8542190079       -4.8780890017        1.0292106954
 H        -4.3698421338       -4.1140037204        1.3606440192
 H        -3.5039915495       -3.7315310797       -0.1850581777
 H         1.3558395849       -1.0134424494        2.5432479603
 H         0.9302422655       -0.2651519343        1.0222107258
 H         2.1572841770        2.0423837774        2.0150118681
 H         2.6421474530        2.8345237599        3.3321168398
 H         0.0906519779        3.0593532529        3.1517991152
 H         0.4922978752        2.9994253422        4.8104379336
 H        -1.0227609829        2.4492087528        4.3544248772
 H         0.7431134585        0.2767723417        5.8653440252
 H        -1.0938260156        0.4672613717        5.4557751965
 H        -0.1952283350       -0.9451712372        4.7037511507
 H         4.3081275153        1.9056352847        1.5338750614
 H         4.3113081070        0.4064342317        2.4491371980
 H         7.0044734444        3.3663188947        1.8594445373
 H         8.5187131731        2.8007872385        2.1033024717
 H         7.5792566752        2.9265926459        4.0836768908
 H         8.4307433079        1.4275310983        4.3451384549
 H         7.0188160388        1.7803854298        5.4554003861
 H         7.2468854988       -0.7457649786        3.7569777857
 H         6.1244333728       -0.2681813460        4.8919049990
 H         5.6744498373       -0.8532256000        3.2078449572
 H         8.8628620940        3.4863518684        0.0347661990
 H         8.5503516055        1.8228946716       -0.2137765244
 H         4.1194625495        1.3765854748       -3.1853398452
 H         5.3696352801        1.1210783695       -4.3459537307
 H         5.6802766888        3.6898081100       -3.9682582643
 H         5.9742453812        4.8130513338       -2.6140346797
 H         4.6852794901        3.6912042408       -2.5203666728
 H         8.7887118195        3.5747530926       -2.5780000738
 H         8.5760095612        1.8313835999       -2.5701470825
 H         7.9300013889        2.6846696966       -3.9922696008
 H         5.6151460362       -1.0785925966       -2.4954354752
 H         5.0349541157       -0.9852006695       -4.4406406955
 H         1.3253212555       -2.1873954462       -3.9988343578
 H         1.7641718719       -3.8273145881       -3.7906112846
 H         4.1868626641       -3.6711194225       -3.3272746047
 H         4.1355509547       -4.2449354088       -1.6731719898
 H         5.3622186459       -3.1222412493       -2.1422926804
 H         2.9606817430       -2.3831036879        0.2230575692
 H         4.6560397537       -1.9734361145       -0.0629481487
 H         3.4995460582       -0.7405501356       -0.2750448083
 H        -0.3918492704       -4.3485721710       -2.6802145998
 H        -0.8173005968       -2.7903966972       -2.5443709087
 H        -3.8656562583       -1.8999980603       -5.5682661094
 H        -4.8400919932       -1.4302933039       -4.0823597795
 H        -3.0266569105       -0.9428189391       -4.2739340528
 H        -2.6773176112       -3.4188010663       -6.5889407124
 H        -4.1308383242       -4.1046525467       -5.8851046966
 H        -2.7511964892       -5.1415704343       -6.2735562608
 H        -1.8050599040       -6.1635649419       -3.8718041936
 H        -2.5149721344       -5.3102024961       -2.4921159304
 H        -3.5228052821       -6.0119044106       -3.5948154721
 Na       -3.6762274776       -0.9448829687       -1.5369850698
