155

 C        -3.2185478405        3.2556191351       -3.4755386503
 C        -3.5675797604        2.1724507458       -2.4463363940
 C        -4.1236323571        2.5245822735       -1.0006556921
 C        -5.4570474673        1.6796528959       -0.9346979792
 C        -6.6866601719        2.3614457507       -0.2931997867
 C        -3.0629561247        1.9154251023        0.0849042278
 C        -4.2671912017        4.0572678601       -0.7419916205
 O        -3.4094885998        1.0258254732       -2.9144714386
 O        -5.5600605236        0.5191370938       -1.2272578610
 C        -7.6683565451        1.2775284290        0.3008540610
 C        -7.9459479381        1.3724621360        1.7597386426
 C        -8.5018337043        0.0966455787        2.3832392936
 C        -7.4393264837       -0.9687707047        2.5341708842
 C        -5.9934046805       -0.5048044050        2.9219473283
 O        -7.5278339463        2.4182145869        2.2565478744
 O        -7.6314101567       -2.1347565826        2.2781052270
 C        -9.0188989447        0.5304581815        3.8682064732
 C        -9.7265325443       -0.4170150528        1.5714656676
 C        -4.9723919980       -1.7675696164        2.9596995372
 C        -4.1892862717       -2.0301210473        1.6597968264
 C        -2.9150696143       -2.8443823169        1.5930236414
 C        -1.8139638150       -1.7146556755        1.1062651721
 C        -0.4446940669       -1.8950218208        1.5862270090
 C        -2.4985385358       -3.5957618837        2.9029596213
 C        -3.1616269837       -3.8436288039        0.4052579947
 O        -4.6791771831       -1.5677251340        0.6242965936
 O        -2.0240150895       -0.9206224215        0.2265979158
 C         0.4599454464       -0.6022110571        1.9371277152
 C        -0.2801895993        0.4426454700        2.7972046913
 C         0.5474938911        1.3256817232        3.6714405859
 C         2.1288475895        1.1166103813        3.4502262563
 C         2.8483324871        2.0898860502        2.5213199658
 O        -1.5055064398        0.4333480000        2.8554945205
 O         2.7255636300        0.1017657596        3.7653891619
 C         0.2234207811        2.7986616351        3.4345635102
 C         0.3101087284        0.9615483673        5.1588482201
 C         4.3229795106        1.8349547305        2.3289678488
 C         5.1239991496        2.1915602534        3.6188670684
 C         6.5763420749        1.6990830703        3.7725370674
 C         7.1075061643        1.7310028852        2.2907880315
 C         7.6545403055        3.0474302704        1.8316323644
 C         7.4819585419        2.5760058362        4.6496158806
 C         6.5387649862        0.2481218318        4.3029884645
 O         4.5916377916        2.7867241818        4.5379304857
 O         7.1245997499        0.6909950642        1.6028921991
 C         7.8932604007        3.0242085219        0.3636905088
 C         6.5510894763        3.0602032775       -0.3696559262
 C         6.5379812507        2.8290558610       -1.9672566567
 C         6.2261880998        1.2743575243       -2.1598342563
 C         5.1396406052        0.7782816984       -3.1446441097
 O         5.5307807040        3.2488425740        0.2341412374
 O         7.0322452825        0.4534367999       -1.7384701927
 C         5.3576422593        3.6042187163       -2.5737685222
 C         7.8496768785        3.2074864462       -2.6638792628
 C         4.9856277960       -0.6997751693       -3.0554052027
 C         3.5631783061       -1.0788022191       -2.6923943473
 C         3.4031011148       -2.4370428991       -2.0039475887
 C         1.9538737438       -2.9594380029       -2.0265020621
 C         1.0687005192       -2.8869439676       -3.4188822554
 C         4.3426811478       -3.5340451862       -2.5687200010
 C         3.8372757535       -2.3123698158       -0.5440498665
 O         2.6324490636       -0.3459049674       -2.8499153690
 O         1.4198031427       -3.4282657065       -1.0354887694
 C         0.0508030089       -4.0113620610       -3.5210887946
 C        -0.7738325965       -3.7389354231       -4.8124010902
 C        -2.3519857565       -4.0079557535       -4.6843089154
 C        -2.9135329624       -2.7834294849       -4.0466893092
 C        -3.3202417388       -1.5231975570       -4.9173264548
 O        -0.2654893045       -3.1182959986       -5.7628549486
 O        -3.0364660123       -2.7066104455       -2.8336176318
 C        -2.9890143522       -4.0611038680       -6.2391736241
 C        -2.7368803185       -5.3335099588       -3.9737939354
 H        -2.8250907717        4.1207035938       -2.9134269532
 H        -2.4244828036        2.7946644946       -4.1145285082
 H        -4.1008411919        3.5509184199       -4.0190290700
 H        -6.2450917985        2.8130698245        0.5448203087
 H        -7.1296686764        3.0753961201       -0.9912635453
 H        -3.5542436326        0.9811351138        0.4059737089
 H        -2.8914029567        2.6369946904        0.8573742426
 H        -2.1712092301        1.7922325848       -0.4957590189
 H        -4.8890907758        4.6069379835       -1.5143735079
 H        -4.7121561280        4.0962459363        0.2468644327
 H        -3.3022623086        4.4978746981       -0.5355458310
 H        -8.6219060960        1.3379674429       -0.2855508294
 H        -7.2784749384        0.2757493454        0.1160295047
 H        -5.6824666662        0.2083782230        2.1519160174
 H        -6.0439994535       -0.0312261688        3.9427493259
 H        -9.9480444266        1.1532358376        3.5647391284
 H        -8.1856883183        1.1647700731        4.2773658020
 H        -9.3871464214       -0.3197320529        4.3329266022
 H       -10.5062971391        0.2875378626        1.7270805598
 H        -9.4892004630       -0.5204400938        0.5097812595
 H       -10.0961723075       -1.2402695248        2.0239382603
 H        -5.5740272168       -2.5950571442        3.1206508860
 H        -4.2277393371       -1.5944846111        3.7190265323
 H        -0.4435913663       -2.6047986310        2.4193085802
 H        -0.0622394281       -2.5054998566        0.8037699651
 H        -3.4060033674       -4.0907377645        3.2768561234
 H        -2.2397025747       -2.9253112195        3.7189747909
 H        -1.6518593119       -4.2826207529        2.7359233324
 H        -2.3527403427       -4.5164751026        0.2880575401
 H        -4.0962835713       -4.4331570085        0.5866781049
 H        -3.4095111333       -3.2667609868       -0.4960822196
 H         1.4059372127       -1.0465660076        2.4181846812
 H         0.9379596515       -0.1086007971        1.0771667069
 H         2.4904723721        1.9943373577        1.4486128745
 H         2.7644552813        3.1268709713        2.8366972031
 H         0.3302170143        2.8122170403        2.3364455543
 H         0.9692857455        3.3691086903        3.8638293493
 H        -0.6799781087        3.2872479522        3.7537337675
 H         1.0681965312        1.4295121959        5.7727503118
 H        -0.7786090972        1.1197869755        5.2700420306
 H         0.5516773624       -0.0799738675        5.1808812622
 H         4.7598304390        2.3786096711        1.5151377174
 H         4.4083390288        0.7798646538        2.2145545456
 H         6.9726531092        3.8501782534        2.0464031516
 H         8.5754275422        3.2007372141        2.3374395653
 H         7.4615334744        3.6953569254        4.3113695194
 H         8.4921660661        2.2140702254        4.7470697335
 H         7.0009730719        2.6426830651        5.6344572623
 H         7.5386618377       -0.0727565923        4.5962550942
 H         5.8026020967        0.1363343501        5.1068842982
 H         6.0123251999       -0.4702337784        3.6370711939
 H         8.5311563811        3.8401362082        0.0643531051
 H         8.3946846738        2.1482465440        0.0414179652
 H         4.2481941939        1.2556322721       -2.7393340783
 H         5.2820645754        1.0622989375       -4.1851966247
 H         5.2782759689        3.3190375783       -3.6330843073
 H         5.3291065829        4.6349992485       -2.5004611604
 H         4.5356775835        3.1221816780       -2.0924022922
 H         8.4262963270        4.0151011599       -2.1756020459
 H         8.4604781849        2.3119207405       -2.8507662494
 H         7.6169890171        3.6297674460       -3.6984078948
 H         5.5640313922       -0.9851312749       -2.1757469602
 H         5.2326627826       -1.1761941152       -4.0748811029
 H         0.6306310740       -1.8991821099       -3.5031843443
 H         1.7328532876       -2.9126531074       -4.2724948442
 H         4.2084509241       -3.5661134608       -3.6338655838
 H         4.1769722116       -4.5015670734       -2.1087864232
 H         5.4148065010       -3.2537312613       -2.4656611581
 H         3.9798072206       -3.2592496136       -0.1202637668
 H         4.7965084712       -1.8251559012       -0.5082905614
 H         3.1182364745       -1.7949194495        0.0545573168
 H         0.5943981921       -4.9939263029       -3.5211826790
 H        -0.5320346809       -4.0615893838       -2.5317420628
 H        -4.3702896457       -1.7188963747       -5.2093987559
 H        -3.1882368057       -0.5976695083       -4.2338815304
 H        -2.7093448406       -1.4086355870       -5.8165119803
 H        -2.2400814191       -3.4587566874       -6.8857989728
 H        -3.9912381276       -3.7369575292       -6.1900276177
 H        -3.1298821774       -5.0433325427       -6.6073830211
 H        -2.4080313273       -6.2779369420       -4.4181182631
 H        -2.3531880717       -5.4508195801       -2.9424343057
 H        -3.8510489859       -5.4246196381       -3.9775818650
 Na       -3.6325805608       -1.0633148672       -1.4662634988
