155

 C        -3.8656643476        2.9724795806       -3.5683723246
 C        -3.5454841296        2.1145538580       -2.3434185130
 C        -4.0236957097        2.3617823646       -0.9052615506
 C        -5.4809100605        1.6807881121       -0.8013936266
 C        -6.6256798785        2.4595323764       -0.0427603758
 C        -2.9616102863        1.8200250041        0.1229759145
 C        -4.1936143977        3.8550590546       -0.6887970620
 O        -2.7749837349        1.1314020139       -2.5005230847
 O        -5.6683768898        0.6328080573       -1.3893920617
 C        -7.7649235772        1.4581908572        0.2831375542
 C        -8.0009357603        1.3024160153        1.7659861968
 C        -8.6580791219       -0.0351104681        2.4163631219
 C        -7.5981459300       -1.1431429124        2.4765544796
 C        -6.1051515674       -0.7047877348        2.9469204062
 O        -7.4626750455        2.1198356207        2.4148920344
 O        -7.7904772263       -2.3702356277        2.4222646391
 C        -9.0160437680        0.3038373421        3.8844366784
 C        -9.8308535246       -0.4817999949        1.5726786806
 C        -5.0339974550       -1.8435868590        2.8382384111
 C        -4.3093764512       -1.9907196674        1.4945016181
 C        -3.0314178044       -2.8166014066        1.4293501267
 C        -1.8455886264       -2.0191933889        1.0501173555
 C        -0.5608330719       -2.0497650716        1.9165441652
 C        -2.9734142753       -3.6332120678        2.7132326635
 C        -3.2517196862       -3.7995649001        0.2463664474
 O        -4.7485164145       -1.5226684040        0.4550550324
 O        -1.7465583736       -1.5872330009       -0.0912178125
 C         0.1665299079       -0.7290803435        1.9855103563
 C        -0.5006549772        0.1960974759        2.9804283181
 C         0.3479333534        1.3976913956        3.5694301653
 C         1.9335926627        1.1738050618        3.1798794655
 C         2.8128798073        2.2922151324        2.6705891564
 O        -1.6752914342        0.1415138287        3.2062048271
 O         2.4819644247        0.1460028187        3.5579104442
 C        -0.2688351018        2.7611803767        3.0036723529
 C         0.2976200227        1.2723706632        5.2111949292
 C         4.2783682608        1.9635550386        2.5805063586
 C         5.0366421416        2.2682444824        3.9032861338
 C         6.6586809585        1.9217604380        4.0059886867
 C         7.3456307080        1.7815585221        2.5944740989
 C         7.7482557676        3.0554567744        1.8177300921
 C         7.1743063375        3.1103442675        4.8421461458
 C         6.8318928664        0.5825034900        4.7343774045
 O         4.4678747447        2.7673424949        4.8163938034
 O         7.5572767482        0.6894916389        2.1083256894
 C         7.9382550535        2.8833539452        0.3314762251
 C         6.6324775696        3.2115671496       -0.5070891640
 C         6.5128007783        3.0391631485       -2.1637097688
 C         6.4555555885        1.5307837720       -2.3708436578
 C         5.0857020313        0.8252339844       -2.7855186102
 O         5.6628771212        3.5721964037        0.0782722531
 O         7.4803900027        0.8544018675       -2.2413555893
 C         5.2733903704        3.7610611105       -2.7968717365
 C         7.7756546603        3.4881380815       -2.9004153410
 C         5.1290660010       -0.6641812030       -2.7405914239
 C         3.7031306410       -1.2187695611       -2.3684402025
 C         3.4565854991       -2.7377440464       -1.9379089253
 C         1.9352417271       -2.9904472680       -2.0866912298
 C         1.3828970376       -2.9438836328       -3.5103238181
 C         4.1303237667       -3.8824740334       -2.9297283874
 C         4.0040439528       -3.0297730834       -0.5417220541
 O         2.7898741190       -0.4190390825       -2.5086804974
 O         1.2138281457       -3.2964014516       -1.1386107257
 C         0.0013522155       -3.8064820399       -3.5458553775
 C        -0.7006076115       -3.6987114664       -4.9087227145
 C        -2.2639838408       -3.9146524356       -4.9462176346
 C        -2.7455238172       -2.5557425063       -4.3278405346
 C        -3.0194279953       -1.2803331561       -5.2266757267
 O        -0.1466827442       -3.3903155110       -5.9132107033
 O        -2.8771323758       -2.5274004775       -3.1077298784
 C        -2.8315792477       -4.0932281108       -6.3391387913
 C        -2.5733336611       -5.0259711344       -3.9293298853
 H        -4.5847292150        3.7768300432       -3.2432777638
 H        -2.9056629390        3.4119638692       -3.8522516091
 H        -4.1531025093        2.3171718760       -4.4003692445
 H        -6.1848408546        2.7178001951        0.8928553190
 H        -6.9422507694        3.3245176551       -0.6458364992
 H        -2.4199878649        1.1054008679       -0.4677851992
 H        -3.4578627908        1.3429081777        0.9785480418
 H        -2.2875804153        2.6694484323        0.2913115596
 H        -5.0239182314        4.2834190948       -1.2568300091
 H        -4.4563394921        4.0130252954        0.3649680477
 H        -3.3075476939        4.4277658685       -0.9242237091
 H        -8.6533145156        1.7653211474       -0.2715930776
 H        -7.5939588996        0.5079466460       -0.1221637272
 H        -5.6881045871        0.1995602856        2.5449675727
 H        -6.2546044803       -0.5194406316        4.0615682211
 H        -8.2467554127        1.0199825623        4.2731054248
 H        -9.0051402830       -0.7723140840        4.4087962418
 H        -9.9808022192        0.7904116590        3.9481429504
 H       -10.4898356482        0.3490298836        1.5458942544
 H        -9.6734354956       -0.7058492193        0.4771744555
 H       -10.3122388529       -1.3076112719        2.0978331156
 H        -5.5344891238       -2.7920978489        3.0619993965
 H        -4.2160956577       -1.5889226532        3.5256340509
 H        -0.8686454648       -2.3639762530        2.9143976765
 H         0.0533780518       -2.8789815385        1.5644734212
 H        -3.8866696329       -4.2711449090        2.7833049530
 H        -2.7634773965       -3.1094791547        3.5783207803
 H        -2.2749178838       -4.4376222169        2.5434158511
 H        -2.2999476181       -4.2142712818        0.0051203116
 H        -3.9830033427       -4.5691612569        0.4570572520
 H        -3.6553464507       -3.2806424483       -0.6248554039
 H         1.2984252460       -0.8613728558        2.1151768939
 H         0.1372541760       -0.2815302567        1.0067065665
 H         2.4846117184        2.6260950944        1.6946092048
 H         2.7750901984        3.1080257119        3.3894177456
 H         0.0078258476        3.0725349230        1.9979097312
 H         0.0513250238        3.4681272980        3.6793640303
 H        -1.3367466031        2.7346546049        2.9758395199
 H         0.6450900069        2.3039400044        5.6514810412
 H        -0.7883553035        1.1840394840        5.3721221456
 H         0.9528230412        0.4356708261        5.4823792774
 H         4.7425557295        2.5562742058        1.7845916740
 H         4.4105726514        0.9168254650        2.4274934338
 H         7.0952543700        3.8524782910        2.0418919029
 H         8.7044682225        3.2610508939        2.1139960267
 H         7.1399706587        4.0769774495        4.2824130968
 H         8.1948610473        2.9513061230        5.1547112217
 H         6.6187859819        3.2320169383        5.8148302452
 H         7.8816342384        0.3250013385        4.7433207613
 H         6.4408098587        0.5092781014        5.7051308898
 H         6.2693347859       -0.2762604468        4.3295613660
 H         8.8021320707        3.4176468963       -0.0374611570
 H         8.1790193222        1.8527723841        0.1890638299
 H         4.3388038627        1.1353168028       -2.0474096564
 H         4.8899996734        1.2283093487       -3.7919729116
 H         5.2304492413        3.5500544758       -3.9089279483
 H         5.3642239905        4.7973592024       -2.5671175737
 H         4.3477278480        3.4681273143       -2.3092318944
 H         7.6255040958        4.5343780424       -3.2280420262
 H         8.6557799613        3.4639430904       -2.2899952616
 H         8.0304628362        2.8774507176       -3.7970260372
 H         5.9044510606       -0.9839727800       -1.9486133392
 H         5.4316323958       -1.1616945178       -3.7558244212
 H         1.2189900623       -1.9095492739       -3.6104419811
 H         2.0645720383       -3.1576034815       -4.2449311588
 H         3.8311290737       -3.9310914481       -3.9675575708
 H         3.7863447469       -4.8366991631       -2.4929866660
 H         5.1967167088       -3.8498225867       -2.8694246578
 H         3.3639845539       -3.7643063458       -0.0244178971
 H         5.0432498850       -3.4979363150       -0.6851698015
 H         3.9665835320       -2.2092225777        0.1528040398
 H         0.3126999484       -4.7642568163       -3.2498159921
 H        -0.6492081334       -3.3420552143       -2.7042606284
 H        -3.2980017068       -0.5298394512       -4.4852238738
 H        -2.0606602417       -1.0008174968       -5.8228972056
 H        -3.8651028407       -1.4715333406       -5.9227059953
 H        -2.6024053987       -3.1192789067       -6.8527055770
 H        -3.8355626824       -4.3752974224       -6.2267735921
 H        -2.3037185520       -4.8082137932       -6.8737843298
 H        -1.9183706937       -5.8841295876       -4.1237394049
 H        -2.5607359804       -4.8102908140       -2.8491225806
 H        -3.6020159839       -5.4221343947       -4.0788219219
 Na       -3.5545809940       -0.8735229224       -1.5271645164
