155

 C        -3.6368141904        3.6476614352       -2.8005536896
 C        -3.9027628217        2.3756241241       -1.9496796423
 C        -5.0824594383        2.2829700400       -0.9063368024
 C        -6.0291129394        0.9594149803       -1.1947082108
 C        -7.5296760479        0.9999881125       -0.8980962928
 C        -4.5646553222        2.2242608399        0.5493981045
 C        -5.8243192689        3.6418110589       -0.8917257482
 O        -3.0481080271        1.4730337564       -2.0508311048
 O        -5.4981202983       -0.0091912249       -1.6379100155
 C        -8.0743944408       -0.2165253668       -0.1709690381
 C        -8.2498541062        0.0885572780        1.3336227873
 C        -8.4504966749       -1.2256247763        2.2569811588
 C        -7.0883450360       -1.8634495599        2.1366178888
 C        -6.0749137302       -1.6134704201        3.3932138014
 O        -8.2644788007        1.2220308179        1.7963080810
 O        -6.7453846579       -2.4118170766        1.1348537711
 C        -8.9010893356       -0.7357866722        3.6816628495
 C        -9.3505330423       -2.2151340559        1.6282647758
 C        -4.6473997733       -2.0706415286        3.0606713821
 C        -4.2144703424       -2.0680688519        1.6041669404
 C        -3.4563905911       -3.3733900079        1.1106518771
 C        -1.9991201963       -2.9536835290        0.7152390569
 C        -0.8853929283       -3.4436209649        1.5748653475
 C        -3.5583489539       -4.6968917703        1.9705730940
 C        -4.2323344791       -3.7728260656       -0.1844177807
 O        -4.2735393854       -1.1079190109        0.8698194302
 O        -1.8386606576       -2.1260572619       -0.1634622369
 C         0.1877705698       -2.3749103383        1.7476808774
 C        -0.4836369183       -0.9998120046        2.1844259360
 C         0.2169408965        0.3392336295        1.9829132250
 C         1.6190130976        0.2086068346        2.7745859031
 C         2.1484864740        1.6124940365        3.2684551317
 O        -1.6320920526       -0.9607850801        2.5554957602
 O         2.2539740840       -0.8170689719        3.0021129928
 C         0.6342912603        0.5139442117        0.4557439419
 C        -0.7207118534        1.3885004415        2.4421611961
 C         3.6850052858        1.7320273244        3.2819361053
 C         4.1306490504        3.2756023123        3.6009501061
 C         5.5212031926        3.4974855053        4.1841239395
 C         6.6623930987        3.9243563316        3.1236809676
 C         6.3790907220        5.0766071029        2.1131713429
 C         5.3172420919        4.7403604763        5.1410867778
 C         6.2274365186        2.3175447026        4.9070694104
 O         3.4447478652        4.1841062202        3.2324045737
 O         7.7524730411        3.4010209097        3.1256949554
 C         6.8790027790        4.8208353132        0.6751611048
 C         6.2765680458        3.5877980937        0.0670228746
 C         6.9614773835        2.8840790890       -1.0852728265
 C         6.7027028628        1.2578012262       -1.1733150720
 C         5.2798210726        0.6913794980       -1.4532216678
 O         5.3349649647        2.9853621973        0.5335690010
 O         7.6033438133        0.4764374894       -0.9930233276
 C         6.3356847202        3.5220038488       -2.3231664144
 C         8.4982392136        3.1858702858       -1.1274176225
 C         5.3617709681       -0.8021512644       -1.4917819302
 C         4.0867738545       -1.6497080970       -1.7911193813
 C         4.1158664327       -3.1875555637       -1.8319907537
 C         2.6481948647       -3.6183350752       -1.9770862451
 C         2.0572542304       -3.4447279744       -3.4267762273
 C         4.9824850990       -3.7516849074       -2.9823502213
 C         4.6082629001       -3.7815571743       -0.4425333690
 O         3.0160770218       -1.1072098530       -1.9163617865
 O         2.0099650242       -4.0570446805       -1.0505587699
 C         0.5939566602       -3.2280039137       -3.6716823232
 C         0.2844959256       -2.3569310272       -4.8894606380
 C        -1.2125847159       -1.9667250055       -5.1240605396
 C        -1.7611669466       -1.1448193481       -3.9523909998
 C        -0.9969638076        0.1855444560       -3.6525526109
 O         1.1649752884       -1.7951236522       -5.5229934141
 O        -2.7290338958       -1.5444212226       -3.3013556407
 C        -1.2144390531       -1.0449848149       -6.4320204668
 C        -2.0961339966       -3.2134277308       -5.3470973701
 H        -3.7384679757        4.4767125500       -2.1069476155
 H        -2.6518889311        3.5417260265       -3.2253920745
 H        -4.3446405947        3.6714504154       -3.5423344716
 H        -7.7421352475        1.9427430873       -0.4436035634
 H        -7.9310390216        0.9814526453       -1.9099422632
 H        -3.8093170591        1.4478194784        0.7535683325
 H        -5.3513711512        2.0272934240        1.2385677329
 H        -4.1237977015        3.1750113755        0.7539293147
 H        -6.3921527368        3.8698377525       -1.8369854513
 H        -6.3962512971        3.7371958360        0.0424786098
 H        -5.0452368940        4.4478290714       -0.7971326778
 H        -8.9535690485       -0.7318293381       -0.6654942119
 H        -7.2698842062       -0.9865190917       -0.1858967073
 H        -6.2566494984       -0.6418334945        3.7906602259
 H        -6.4153629818       -2.3159706956        4.2255056528
 H        -8.5893441326       -1.2892539423        4.5625046164
 H       -10.0115042440       -1.0359420829        3.7259655337
 H        -8.7917754652        0.3725073053        3.8854176229
 H       -10.1800748820       -1.6069173321        1.2245221000
 H        -8.7259489731       -2.8087109645        0.9136978639
 H        -9.6625892415       -2.9946590717        2.4143826655
 H        -4.3338002667       -3.0054087569        3.5688975292
 H        -3.9506813817       -1.3695799809        3.3969602070
 H        -1.2455169643       -3.5976912083        2.5390539391
 H        -0.4746111730       -4.4697801911        1.2326330061
 H        -4.5018500956       -5.0034676484        2.3760358588
 H        -2.7974858148       -4.8727435286        2.8132164681
 H        -3.2287941738       -5.4375837576        1.2648881657
 H        -3.7290167425       -3.2246193129       -1.0144494994
 H        -4.2848894786       -4.8170819516       -0.3771400621
 H        -5.2452457320       -3.4599392244       -0.1409611831
 H         0.8466624321       -2.7391101583        2.5753757180
 H         0.7151464218       -2.1180948162        0.8600336227
 H         1.8233006690        2.4780545687        2.6261696777
 H         1.7460938976        1.8981387624        4.2567712394
 H         1.0604120965       -0.3763049268        0.0561358767
 H         1.2409306015        1.4097659749        0.2376009727
 H        -0.3706548915        0.4979526087        0.0130881988
 H        -0.3705662741        2.4840673371        2.2891662131
 H        -1.6700996411        1.4804736926        1.8501443187
 H        -0.7733050285        1.3470976693        3.5089279766
 H         4.0932789331        1.3806850866        2.4113476214
 H         4.1744264558        1.1683518635        4.0590489031
 H         5.2723550163        5.1159314583        2.1807825396
 H         6.8675217266        5.9122173844        2.5271451410
 H         5.0900762243        5.6070396908        4.5063745947
 H         6.1898094098        4.9304634217        5.6862032920
 H         4.5611456502        4.4867670129        5.8050680485
 H         7.2248215509        2.7089650196        5.2580919520
 H         5.5560472604        1.8426770489        5.6771163950
 H         6.4655060325        1.4862934479        4.2355493484
 H         6.7900629111        5.7837751520        0.0555817733
 H         7.9715992155        4.7230676636        0.6885202136
 H         4.4962564616        1.0950268262       -0.7364222723
 H         4.9099019742        1.0592200938       -2.3848484804
 H         6.8194979675        3.1224584853       -3.1824323623
 H         6.4020421675        4.6419657388       -2.2792956336
 H         5.2894824267        3.2368389009       -2.4169656661
 H         8.9639088805        2.8970358644       -0.1576903957
 H         9.0037350794        2.4941690787       -1.8708219669
 H         8.6355541641        4.2337929935       -1.4142712099
 H         5.8378183659       -1.3776299208       -0.6586565247
 H         6.1468241766       -1.1015980178       -2.1242476380
 H         2.6108908466       -2.5803924994       -3.8614713854
 H         2.5280245768       -4.3776394915       -3.9260679722
 H         4.9991886544       -3.1139872148       -3.8376202219
 H         4.6567336155       -4.7375179114       -3.3535734850
 H         6.0282160314       -3.8546548651       -2.6370819684
 H         4.6857336474       -4.8464637834       -0.4461683708
 H         5.6792665577       -3.4631925647       -0.3073680440
 H         3.9918951154       -3.4440125592        0.3764741143
 H         0.1346594651       -4.1792711832       -3.8120299909
 H         0.0570352344       -2.8297944307       -2.8435787844
 H        -0.1043584462        0.2787252872       -4.1643116775
 H        -1.6356806785        0.9845460100       -4.0116967369
 H        -0.7325587281        0.3988282268       -2.6866899784
 H        -0.9452914392        0.0146943043       -6.2769416445
 H        -2.0544094776       -1.1972228115       -7.0049322809
 H        -0.4697075880       -1.3137425520       -7.1432190108
 H        -1.6655813822       -4.0968717580       -4.7852909368
 H        -3.1485999707       -3.0652227335       -5.0122583788
 H        -2.2359486872       -3.4540300267       -6.3972438674
 Na       -3.4051517390       -0.6916069450       -1.3107607746
