155

 C        -3.8105312944        3.4797532265       -2.8745128511
 C        -4.0226802917        2.3103717741       -1.8097636331
 C        -5.1836189536        2.2852133226       -0.8155758728
 C        -6.0374789082        1.0465881640       -1.0477116713
 C        -7.6151635434        1.2133080185       -0.8999602051
 C        -4.5290540666        2.0089487889        0.5889194983
 C        -6.0205438851        3.5508737699       -0.8751377759
 O        -3.1715750129        1.4908465320       -1.8152444804
 O        -5.5325175227        0.0107864989       -1.4640822365
 C        -8.2895386571       -0.0141384434       -0.2809560211
 C        -8.3704524625        0.0381003510        1.2642826124
 C        -8.4583374266       -1.4013211812        2.2656144558
 C        -6.9579230394       -1.8723345819        2.3084835966
 C        -5.9618162485       -1.7993446144        3.5202103884
 O        -8.2964418553        1.0482737715        1.8682701785
 O        -6.5420521500       -2.4100564861        1.2309367994
 C        -8.9675864836       -0.9574670236        3.6819860535
 C        -9.5336008250       -2.3805352451        1.5915544223
 C        -4.5067123307       -1.8939308198        3.0413722882
 C        -4.2959110832       -2.1327672233        1.5682726406
 C        -3.6991626242       -3.4566822469        0.9527962585
 C        -2.1427786065       -3.1103538211        0.7077576202
 C        -0.9554539622       -3.5571713977        1.6211072406
 C        -3.9181712853       -4.6827385202        1.9333822354
 C        -4.2109720629       -3.7279297605       -0.3885681131
 O        -4.3552698005       -1.1246178650        0.8711703674
 O        -1.8680979462       -2.2699012333       -0.1306644002
 C         0.0922777291       -2.4105835069        1.7661264780
 C        -0.6132862131       -1.0899901730        2.1197614978
 C         0.1569521639        0.4216880027        2.0302309569
 C         1.6289505417        0.5330090978        2.8192507889
 C         2.1498178874        1.8872931184        3.2200390165
 O        -1.7749496923       -1.0545152466        2.4599202615
 O         2.2877952255       -0.4797575304        2.8345347539
 C         0.5724902902        0.4611415301        0.4944256827
 C        -0.7827051941        1.5207878335        2.4708730525
 C         3.6071330632        1.9345709945        3.5784636803
 C         4.1471353804        3.3901761283        3.5737318772
 C         5.5823385787        3.6784115319        4.2979681825
 C         6.6156543027        4.0617737196        3.0748273163
 C         6.1984663476        5.2056093116        2.0825972511
 C         5.6597414947        4.7771731608        5.2939312953
 C         6.0493393249        2.3689877225        5.0332358996
 O         3.5491763638        4.3918001836        3.1750427105
 O         7.6844586266        3.5220028138        2.9441053522
 C         6.7127110536        4.8506801294        0.7249133303
 C         6.3138081809        3.4843908798        0.2047913848
 C         6.9991586205        2.8282300124       -1.0279269344
 C         6.7907238438        1.2342114134       -1.1122082405
 C         5.3391009540        0.6139169109       -1.0849914514
 O         5.3793254651        2.9348718528        0.7616244099
 O         7.8195042657        0.6026089616       -1.1036507488
 C         6.4381724862        3.4413971434       -2.3086252916
 C         8.5215660569        2.9731319883       -1.1208942973
 C         5.4739920922       -0.8757276414       -1.3293949020
 C         4.0749489491       -1.5423325541       -1.7410896455
 C         4.0663576156       -3.1446572389       -1.8108685294
 C         2.6346487455       -3.8158768736       -2.2050558982
 C         2.1320181030       -3.5621416087       -3.6611516838
 C         5.0980045504       -3.6462184715       -2.8050658041
 C         4.5924051501       -3.6696387954       -0.3802966050
 O         3.1023090462       -0.8269454483       -1.9844002773
 O         2.0288807831       -4.4598796189       -1.3761796230
 C         0.6747258733       -3.2811062540       -3.6872923265
 C         0.4417516025       -2.4072605003       -4.9053599617
 C        -1.0070226657       -1.8019976694       -5.3163859422
 C        -1.5887127719       -1.0621106319       -4.0856345981
 C        -1.0290879664        0.2082590804       -3.5407877619
 O         1.3163720715       -2.1354011932       -5.6551923669
 O        -2.5537005226       -1.6069179423       -3.5785711017
 C        -0.8798660347       -0.8596741403       -6.5805373295
 C        -1.9662870716       -2.9887175836       -5.7799983866
 H        -2.8385909234        3.8763423605       -2.6242374852
 H        -3.8836034071        2.9719157567       -3.8643385800
 H        -4.6134327956        4.2923159055       -2.7351935984
 H        -7.7567340835        2.0349711713       -0.1565996280
 H        -8.0635670616        1.5019183499       -1.8434926101
 H        -4.0524558581        1.0378205116        0.5832802903
 H        -5.2517593426        1.9920564919        1.4535394552
 H        -3.7244573248        2.7551579379        0.8426177382
 H        -6.3596322852        3.5607097913       -1.8691585169
 H        -6.8277708532        3.6696368864       -0.1508597590
 H        -5.4128765268        4.4195451458       -0.6950629051
 H        -9.3107385582       -0.0672543130       -0.6374592282
 H        -7.9423092502       -1.0026174779       -0.6286213954
 H        -6.2302376420       -0.8701667406        4.0703169088
 H        -6.0751390403       -2.5502436811        4.2245552743
 H        -8.3351040841       -1.5650198723        4.4006213328
 H        -9.9622828828       -1.2281692753        3.8658156697
 H        -8.8831721536        0.0786034499        3.8787804541
 H       -10.4323625259       -1.8605155778        1.4148133645
 H        -9.0664305995       -2.9036882494        0.7813064374
 H        -9.6823149804       -3.0754289376        2.3103287355
 H        -4.1353625469       -2.7474422190        3.5801970614
 H        -3.8542812405       -0.9942170415        3.3090568909
 H        -1.4106149395       -3.8216333462        2.6579841710
 H        -0.5039484104       -4.4289513883        1.2918759202
 H        -5.0300054843       -4.6717701880        2.0206707515
 H        -3.5874531758       -4.5667385311        2.8974092053
 H        -3.5765912490       -5.6752789877        1.6105676889
 H        -4.3882571232       -2.8075948564       -0.9163895997
 H        -3.4960982726       -4.3751309792       -0.9344555124
 H        -5.1236092817       -4.3453937446       -0.3457654812
 H         0.7395914597       -2.5481406143        2.5896199392
 H         0.6312138625       -2.2022030209        0.8189328291
 H         1.8932904635        2.6124231241        2.4745440078
 H         1.6203909065        2.2997129747        4.0727783012
 H         1.5310146399       -0.0245893123        0.2015055759
 H         0.8267725445        1.5300195806        0.5514140956
 H        -0.1965088700        0.1641314890       -0.2451554387
 H        -0.4098323243        2.4292558682        2.7002913739
 H        -1.3823280274        1.8028736909        1.6384851460
 H        -1.3534003632        1.2372262901        3.3355159877
 H         4.3438330786        1.3639524978        2.8653067939
 H         3.8562695007        1.5196968085        4.5708887582
 H         5.1174188389        5.3033011880        2.1627864812
 H         6.7645088137        6.1421740453        2.4578616845
 H         5.3253052546        5.6611897842        4.7591174307
 H         6.7349114437        4.9637953673        5.5886501835
 H         5.0571693739        4.5208998938        6.1843109029
 H         7.0872361467        2.4517492776        5.1693979537
 H         5.3596688771        2.2450327370        5.8338445824
 H         5.8519278679        1.4261809677        4.5753444150
 H         6.3144954097        5.5935342870        0.1358049829
 H         7.7520886830        5.0869444122        0.5823736841
 H         4.9652272528        0.7465146212       -0.1002189743
 H         4.6291836683        1.1411795884       -1.7372225687
 H         6.9387349954        3.0621679047       -3.2388631943
 H         6.6534666292        4.4710789722       -2.3079452706
 H         5.3660253883        3.2591832469       -2.3075348950
 H         9.0203911385        2.3784013268       -0.3602070557
 H         8.8240097834        2.5344523213       -2.0409289601
 H         8.7822071782        4.0527607954       -1.1783040014
 H         6.0174075028       -1.4251558653       -0.6141976588
 H         6.2429037931       -1.1641252380       -2.1098918885
 H         2.7322200062       -2.8050913230       -4.1729225685
 H         2.3029908011       -4.4669730733       -4.1722332109
 H         4.7606256704       -3.2863234142       -3.8221818392
 H         5.2110237337       -4.7352993026       -2.8250281733
 H         6.0673570299       -3.2158486569       -2.7256078437
 H         4.7023312438       -4.8134440871       -0.3620697201
 H         5.6092133852       -3.3355238084       -0.2627051839
 H         4.0084400895       -3.2257962808        0.5040021173
 H         0.0501289210       -4.2550171075       -3.7821986184
 H         0.1523911832       -2.8405028031       -2.7870180672
 H         0.0358998096        0.4642511777       -3.8701796605
 H        -1.6912750124        1.0895050457       -3.7044930498
 H        -0.9300800857        0.1130006192       -2.4028489724
 H        -0.2195092072       -0.0113922429       -6.4354983282
 H        -1.8454717099       -0.5650386951       -7.0337127987
 H        -0.3829806129       -1.2891420338       -7.4650617309
 H        -2.4091354009       -3.4655927859       -4.9464148882
 H        -2.7339690856       -2.7333213695       -6.4935779548
 H        -1.3849106994       -3.7382171481       -6.3455254376
 Na       -3.2836132443       -0.8830622160       -1.2564986204
