155

 C        -4.4092974070        2.9468557870       -3.1115117883
 C        -4.3055293048        2.2464305283       -1.7634597203
 C        -5.4613208723        2.1642346169       -0.7359742556
 C        -6.3344582664        0.8377755015       -0.9971863943
 C        -7.9531795195        0.9176536986       -0.8154140996
 C        -4.8573136175        1.8927199324        0.6724429082
 C        -6.2523425957        3.5684255867       -0.8166843264
 O        -3.3018348890        1.5335402289       -1.5532052790
 O        -5.8374547897       -0.1448085534       -1.4179835359
 C        -8.5272775860       -0.3667762287       -0.2022342021
 C        -8.3424155534       -0.4788406427        1.3851051287
 C        -8.4415847698       -1.8542194493        1.9942594130
 C        -7.0655531089       -2.5165524420        2.3362933110
 C        -5.8953244850       -1.6085271108        3.0751372854
 O        -8.2551664252        0.4710841058        2.1401127576
 O        -6.7480018550       -3.6754425078        1.9434004499
 C        -8.9122674975       -1.5630512669        3.4543157268
 C        -9.3019149937       -2.7885120970        1.2406466406
 C        -4.4646574097       -2.2033794963        2.7727623779
 C        -4.1685640556       -2.2891877250        1.3322488626
 C        -3.1651599439       -3.4085856961        0.7135960110
 C        -1.7978771912       -2.6769246899        0.5893949210
 C        -0.7495495811       -3.0650461353        1.6905433649
 C        -3.2456936183       -4.7968433178        1.4802227993
 C        -3.5706902190       -3.6508024469       -0.7737983454
 O        -4.5751148195       -1.4062015108        0.6062213752
 O        -1.5882600603       -1.7817480766       -0.2438071452
 C         0.1757370495       -1.8785954713        1.8204160915
 C        -0.4959632200       -0.6115865158        2.2614031464
 C         0.1047949459        0.8810545102        1.8086158325
 C         1.4753251924        1.0866637376        2.6420000717
 C         2.2454083098        2.3506898246        2.4141175277
 O        -1.6178945591       -0.6986648752        2.7149874400
 O         1.8410506779        0.1586503423        3.3008122280
 C         0.1674726301        1.0502514549        0.2635400042
 C        -0.9341459802        1.9105811058        2.2712757470
 C         3.5185301723        2.3566642175        3.2385184809
 C         3.6814907105        3.6331815798        4.0727879212
 C         5.0547824547        3.9269371769        4.5940000096
 C         6.1515987070        4.0016728206        3.3796869502
 C         5.6824719397        4.7072531677        2.1054172529
 C         5.1975749731        5.3024358672        5.3015184961
 C         5.6015123279        2.8530075876        5.6122361534
 O         2.7527743031        4.5246735403        4.1596509244
 O         7.2544433477        3.5730763508        3.5575630014
 C         6.5920592786        4.3526545257        0.8785338243
 C         6.2400617789        3.0461238533        0.1952361790
 C         7.0378490604        2.5804668590       -1.0936553758
 C         7.0429158414        0.9834620989       -1.2031327921
 C         5.6129686748        0.2356036133       -1.4560478865
 O         5.2086957045        2.4745970330        0.4840697525
 O         8.0962724761        0.4369827633       -1.0248178710
 C         6.0554280364        3.1566227070       -2.1637771109
 C         8.4817916908        3.1485904937       -1.1936086999
 C         5.8406889727       -1.3474516240       -1.3348658817
 C         4.4165409819       -1.9389367791       -1.3419588971
 C         4.1664422357       -3.5068588551       -1.5402787787
 C         2.9124342959       -3.8356453374       -2.4005020686
 C         2.6842559651       -3.1517196516       -3.7844073322
 C         5.4033892237       -4.2068452116       -2.2712880686
 C         3.9760446208       -4.0309422823       -0.0473485909
 O         3.4297514996       -1.2564976185       -1.0709163732
 O         2.1520746276       -4.6965828786       -1.9626175524
 C         1.2568103958       -2.4609145532       -3.8915467151
 C         0.8701569186       -2.0846040688       -5.3252239400
 C        -0.6576872903       -1.2895069733       -5.4666840365
 C        -1.1372872624       -0.7954580354       -4.0976101232
 C        -0.3836541956        0.3980947054       -3.4204817638
 O         1.4285076067       -2.1464080686       -6.3779827942
 O        -2.1320103236       -1.2538693927       -3.5204813889
 C        -0.3509767736       -0.0016616430       -6.3798068118
 C        -1.6454739093       -2.2193965086       -6.0968279700
 H        -5.0717165668        3.7680390130       -3.0013749068
 H        -3.3901173749        3.2293545109       -3.4195644548
 H        -4.8457626297        2.1124321077       -3.7883390625
 H        -8.0744124238        1.8339736582       -0.2217419172
 H        -8.4369108817        1.0756136820       -1.8148674274
 H        -4.1700495848        1.0799668265        0.5583812618
 H        -5.5855638996        1.5585591020        1.4067874524
 H        -4.2282012956        2.6694910311        1.1061105221
 H        -6.8354905143        3.7399981061       -1.7568307682
 H        -6.9231060162        3.7020937139        0.0246448949
 H        -5.5547787134        4.3931353439       -0.8443997962
 H        -9.6253242380       -0.3721269969       -0.3246789475
 H        -8.2854755331       -1.2229765635       -0.7893452061
 H        -5.9186305685       -0.5463058702        2.8141243940
 H        -5.9169518710       -1.7468103862        4.1543498577
 H        -8.3225986226       -0.7070474772        3.8177496056
 H        -8.8786634260       -2.4067339253        4.0684396757
 H        -9.8826530633       -1.1540782984        3.2560053456
 H       -10.3091957769       -2.5389879335        1.4597992036
 H        -9.1987906374       -2.8660866174        0.1688865754
 H        -9.1088180464       -3.7227904272        1.6022013008
 H        -4.4442690795       -3.1082195824        3.3553577557
 H        -3.6974896747       -1.4880506412        3.2200656652
 H        -1.3346153511       -3.3179358094        2.5431387558
 H        -0.1392177193       -3.9608668881        1.4657910074
 H        -4.2544491892       -5.1449167728        1.3647314380
 H        -2.9513265154       -4.7214941188        2.5014260531
 H        -2.5150696882       -5.4630715160        0.9999226211
 H        -4.5327323872       -3.3724720809       -1.0678260780
 H        -2.7562992457       -3.1994987862       -1.3357030674
 H        -3.4435345672       -4.7469420029       -0.9229796604
 H         0.9702435921       -2.1018298770        2.5709466724
 H         0.7582772149       -1.7617061073        0.9193294368
 H         2.4888029927        2.4501587120        1.3538650437
 H         1.6051107465        3.1680307742        2.7613662805
 H         0.8863668161        0.3185865003       -0.1971982946
 H         0.5015528838        2.0737699534        0.1255888095
 H        -0.8770662010        1.1078311604       -0.0514429923
 H        -0.8068399249        2.8066107872        1.6680519181
 H        -1.9782609683        1.6294784509        2.0572357885
 H        -0.7939009739        2.2162519480        3.2915015900
 H         4.3482874106        2.2358295246        2.5334309670
 H         3.4416980010        1.4799032359        3.9951292960
 H         4.6298100432        4.5391169451        1.9484415019
 H         5.6722774102        5.7903935239        2.3414818874
 H         4.8823573322        6.1352308147        4.7299284711
 H         6.2171636322        5.4197764098        5.7149290890
 H         4.5335232117        5.2223055512        6.2141096921
 H         6.5371732684        3.1064608993        6.0160609677
 H         5.0493742244        2.9139531674        6.5138889921
 H         5.7166922671        1.9870738766        4.9653712526
 H         6.2400292463        5.0713357384        0.1554476863
 H         7.6370443426        4.4303149407        1.1252945427
 H         4.8975982863        0.6132564024       -0.7232740982
 H         5.2974245278        0.4642024761       -2.5480919061
 H         6.4562771376        2.9692639229       -3.1147225725
 H         5.9893328148        4.1883879134       -1.8910765398
 H         5.0435529884        2.7649156442       -2.1626830714
 H         9.0975546964        3.0756952325       -0.2720128024
 H         9.1240115691        2.8113910887       -2.0300856014
 H         8.3887923310        4.2924732036       -1.2883885878
 H         6.2698259881       -1.4739364283       -0.3284881734
 H         6.3306271437       -1.5996188584       -2.1975805696
 H         3.5624647829       -2.6337131580       -4.0142500372
 H         2.6383911427       -4.0277122612       -4.4404264190
 H         5.7369787154       -3.7357952871       -3.1871856518
 H         5.1199134872       -5.1460648573       -2.6504836591
 H         6.2341334565       -4.3620304859       -1.5434905948
 H         3.5745948035       -5.1062053540       -0.1036213594
 H         4.9115170287       -3.9630618917        0.4972849226
 H         3.0792417315       -3.4501517953        0.2890843020
 H         0.5863848718       -3.2808356084       -3.5669539127
 H         1.0393664733       -1.5289457629       -3.2066943633
 H         0.5661467910        0.6981183566       -3.9943057306
 H        -1.0174487740        1.2713420015       -3.5440142862
 H        -0.2417984297        0.2951098439       -2.2884836574
 H         0.5583887164        0.4961725727       -6.1271735487
 H        -1.1481089420        0.8340476831       -6.2017687072
 H        -0.3298484522       -0.3261808156       -7.4478984155
 H        -1.0856240340       -3.1618870783       -6.2683073868
 H        -2.5766269280       -2.4837145896       -5.5405418211
 H        -1.9472748565       -1.8603887969       -7.1200901566
 Na       -3.3500171269       -0.7409688837       -1.5137004361
