155

 C        -4.6513313463        3.7964041109       -3.0162997188
 C        -4.4497848322        2.5998111279       -2.0457552494
 C        -5.6260383466        2.0324297996       -1.1606971441
 C        -6.1252228051        0.6246465661       -1.6931767305
 C        -7.5990541345        0.2556563564       -1.3747148466
 C        -5.0749713616        1.6719317602        0.2152073033
 C        -6.7876368022        3.1611575796       -1.0416034955
 O        -3.4160556493        1.9416359404       -2.0068406297
 O        -5.3277913560       -0.1830002807       -2.0628677612
 C        -7.8598566614       -1.1133939122       -0.6243342206
 C        -7.8229502296       -0.8969599008        1.0168175683
 C        -8.1151992485       -2.0964378049        1.9575588664
 C        -6.7788131350       -3.0485396294        2.0316531849
 C        -5.6597944471       -2.4395814943        2.8291367254
 O        -7.6719909180        0.2430922243        1.4580766971
 O        -6.6931353604       -4.1345492924        1.4894811843
 C        -8.4755841287       -1.4976487514        3.3599573642
 C        -9.3231096587       -2.9097039442        1.3907987682
 C        -4.3467355866       -3.1380779576        2.5109553000
 C        -3.8924983582       -2.7294909205        1.0314650882
 C        -2.6407307833       -3.6449028645        0.4264972982
 C        -1.5248290898       -2.6970682267        0.3012553199
 C        -0.2607663885       -2.6898813824        1.1227914342
 C        -2.3640936565       -4.8193701346        1.3508679475
 C        -3.2496969647       -4.1814648095       -0.9540578780
 O        -4.3702202173       -1.8192736032        0.3632406444
 O        -1.4973403471       -1.8177960324       -0.5459156835
 C         0.4097729824       -1.2797579337        1.2131514771
 C        -0.5613307580       -0.3291160927        1.9960788808
 C        -0.0412021621        1.2144360459        2.1680954229
 C         1.3019269268        1.1400187559        3.0574499139
 C         2.2621755258        2.2485251171        2.9759649280
 O        -1.6305801978       -0.7060695135        2.4687066777
 O         1.3515590409        0.1515386153        3.8016780475
 C         0.0711218363        1.7883778564        0.7346810871
 C        -1.0327321838        2.1077420841        2.9105781262
 C         3.3115977754        2.4019369675        4.0902738577
 C         3.6206897105        3.9022369865        4.1817503031
 C         5.0242518453        4.2968827095        4.7675277752
 C         6.1462655263        3.6664677606        3.7745471306
 C         5.9537798791        4.0654360306        2.3421307055
 C         5.1852006692        5.8701109340        4.5928414596
 C         5.2246499045        3.8612892351        6.1692534906
 O         2.7727928378        4.6970900611        3.8945621145
 O         7.1245152890        3.0507514744        4.1196246767
 C         6.7677159569        3.4318074929        1.2123540293
 C         5.9304355288        3.1126778090       -0.0720318889
 C         6.7377165123        2.5495109033       -1.2131551181
 C         6.6658535236        0.9303484780       -1.1160995248
 C         5.3869662703        0.1416236818       -1.5968482242
 O         4.7356111816        3.3130747854       -0.0990787957
 O         7.5248302703        0.3705138037       -0.4829214347
 C         6.0900495453        2.9358205438       -2.5299158805
 C         8.2715905449        2.9831216533       -1.1230801303
 C         5.6387449008       -1.3476965692       -1.5643126068
 C         4.3272569806       -2.1105464062       -1.2016219173
 C         4.1112391603       -3.6367512937       -1.5629957177
 C         2.6560485607       -3.7901964755       -1.9969504475
 C         2.3117399057       -3.2875401081       -3.4850947825
 C         5.1845543870       -4.1130354227       -2.6305130496
 C         4.3880759582       -4.3618422504       -0.2042676457
 O         3.4466825103       -1.4933565184       -0.6489381623
 O         1.8770291474       -4.2668527821       -1.2312286968
 C         0.9831274824       -2.5189452863       -3.5721286865
 C         0.8050614376       -1.3715562336       -4.7772240872
 C        -0.6743813634       -1.0268611116       -5.1061296913
 C        -1.3766278342       -0.4300212107       -3.7943379288
 C        -0.7862165797        0.7979188457       -3.1540816552
 O         1.6979709944       -0.5970944025       -5.0720785174
 O        -2.3556779692       -1.0277910414       -3.3966698212
 C        -0.7185238084        0.1452028988       -6.1851191193
 C        -1.5329069884       -2.3647356266       -5.6595583473
 H        -5.0139168153        3.2951309437       -3.9038030618
 H        -5.3547783065        4.4892071213       -2.6068566704
 H        -3.7159692481        4.1934767491       -3.2146138315
 H        -7.9345645019        1.1259570532       -0.9091074943
 H        -8.1443266688        0.1554758029       -2.2693878946
 H        -4.3189882908        0.9038184980        0.0581425172
 H        -5.7390843311        1.2178944713        0.9897507892
 H        -4.5311845348        2.5289944824        0.7017380034
 H        -7.4160186245        3.2311825551       -1.8806723068
 H        -7.5394413750        2.9982680781       -0.2306489392
 H        -6.3165343489        4.1250786760       -0.8538999384
 H        -8.9579090667       -1.2017248903       -0.7371585111
 H        -7.2387279517       -1.8628752096       -1.0676911124
 H        -5.5513908882       -1.3689153215        2.6603729007
 H        -5.9005380642       -2.5526283714        3.8249163654
 H        -7.6060938336       -1.2987851415        4.0246114939
 H        -9.2791721705       -2.1595688180        3.6951078401
 H        -8.9913148756       -0.6425549263        3.0047643000
 H       -10.3088638295       -2.3617137165        1.4117301736
 H        -9.2602071538       -3.2646136315        0.3117845441
 H        -9.5325745314       -3.7638675264        2.1361971200
 H        -4.5490311213       -4.1130776214        2.7568383419
 H        -3.5030697496       -2.9224043297        3.2137032442
 H        -0.6221643911       -3.0534566673        2.1203597933
 H         0.4643753283       -3.3382974035        0.6887130669
 H        -3.3388740662       -5.2897619800        1.6618619260
 H        -1.7755467244       -4.5458215482        2.1753988595
 H        -1.9358046843       -5.6629861614        0.7604777113
 H        -4.2951820613       -4.4435240520       -0.8933521630
 H        -3.1924949712       -3.3996095610       -1.7217897591
 H        -2.5755912556       -5.0268300809       -1.1804084600
 H         1.4071470422       -1.2736456962        1.6290372570
 H         0.6214100321       -1.0060453771        0.1935447565
 H         2.7881882997        2.1398083058        2.0472340666
 H         1.5489287331        3.0454596053        3.0703942659
 H         0.7377460386        1.1273959821        0.1360041269
 H         0.6146956320        2.6860807633        0.9492967415
 H        -0.8905633095        1.8892744210        0.2456782167
 H        -0.7037570795        3.1687535836        2.8468698296
 H        -2.0036287791        2.0301962344        2.4110164854
 H        -1.1956624026        1.7050039326        3.9023393525
 H         4.1307821268        1.7156889156        3.9160494048
 H         2.8422252186        1.9739551909        4.9824158530
 H         4.8695790010        3.8641752538        2.0973577541
 H         6.2578915852        5.1784594816        2.2571014572
 H         4.8151906069        6.2081441892        3.6063010552
 H         6.1676224674        6.3263469757        4.7667558811
 H         4.5453759819        6.3198917278        5.2304485214
 H         6.2520006909        4.0484579579        6.4513412546
 H         4.4602183660        4.3690167910        6.8435997331
 H         5.0562803628        2.7456375991        6.3534314401
 H         7.6221226908        4.0204800588        0.9281828091
 H         7.1199932008        2.4672964143        1.5442492771
 H         4.5474101496        0.4504172042       -1.1283188701
 H         5.2719510729        0.4616109582       -2.6753018051
 H         6.6885422400        2.5160664143       -3.3797487756
 H         6.2050309468        3.9804792555       -2.7074331027
 H         5.0085833730        2.7093602552       -2.4261120504
 H         8.7670228811        2.5810298018       -0.2602556668
 H         8.7564917626        2.6509000230       -1.9768181235
 H         8.4598241296        4.0229456039       -1.0782418084
 H         6.4168507620       -1.4261007032       -0.7289430591
 H         6.0554503229       -1.6710000893       -2.4874350641
 H         3.0371052822       -2.5585697192       -3.8153326417
 H         2.3149495728       -4.1611199284       -4.1840579439
 H         4.9892909941       -3.6063746630       -3.6237797781
 H         5.1007327646       -5.1864587382       -2.6299913222
 H         6.1802686305       -3.8361459452       -2.4154219217
 H         4.3222169743       -5.4080565663       -0.4045527037
 H         5.3063246016       -4.0513105892        0.2042159407
 H         3.6266552452       -3.9897815473        0.4604675199
 H         0.0298547744       -3.1719675315       -3.8282164177
 H         0.8301134412       -1.8252768954       -2.6743311232
 H         0.2199139180        0.7358980294       -2.9923664412
 H        -1.0151607343        1.5724706319       -3.8994745509
 H        -1.2000501538        1.1032096775       -2.2772937970
 H         0.2648308164        0.6582494820       -6.0649117564
 H        -1.5642311713        0.6851404372       -6.0232406220
 H        -0.7954041604       -0.2888803507       -7.1781342137
 H        -2.4277042535       -2.4112767823       -5.1416060859
 H        -1.7335291407       -2.3662135588       -6.7152156896
 H        -0.9839240040       -3.2237047874       -5.3419360278
 Na       -3.3110166958       -0.5937074015       -1.3950923851
