155

 C        -5.4435084616        3.3884663436       -3.0864332606
 C        -5.2247929994        2.0924104258       -2.1672448476
 C        -6.1185876636        1.6399772519       -1.0544345745
 C        -6.5208752487        0.1288182503       -1.4051988207
 C        -7.9932956540       -0.1285304684       -1.6483070366
 C        -5.3205705619        1.6171638511        0.3193525741
 C        -7.2746562120        2.7167923062       -0.7504025799
 O        -4.2707231532        1.3823928520       -2.5145650670
 O        -5.6544610363       -0.7088010750       -1.4249910617
 C        -8.3187168713       -1.3247627337       -0.7089319927
 C        -7.9719091792       -1.1448443399        0.7312847283
 C        -7.8941757919       -2.4851657102        1.5969900633
 C        -6.4426524977       -3.0858627177        1.1951673452
 C        -5.3028086461       -2.8770082044        2.2000219405
 O        -7.8749699854       -0.0505320899        1.2500704070
 O        -6.2497872532       -3.5087101214        0.0838057179
 C        -8.0040704807       -2.2437814686        3.1157931257
 C        -8.9402146145       -3.5053949542        1.0127515117
 C        -3.9938962942       -3.4743797283        1.6999256081
 C        -3.1675957745       -2.7334115692        0.6017378927
 C        -1.8517009090       -3.3340985642        0.0416979165
 C        -0.8270123675       -2.0948595911        0.1897823692
 C         0.2752486121       -2.2955635533        1.1828237594
 C        -1.3519287068       -4.5840362654        0.7103066593
 C        -1.9919883651       -3.7079404509       -1.4908932458
 O        -3.5403924864       -1.6350623291        0.2543711276
 O        -0.9274612713       -1.0254783250       -0.4441949668
 C         0.7658510424       -0.8793321832        1.6558931999
 C        -0.3443165187       -0.1588340930        2.4367296621
 C        -0.0513827286        1.3282187924        2.8454990368
 C         1.3479425741        1.2974070832        3.6044363669
 C         2.3507054014        2.4569854605        3.3630186056
 O        -1.4785637421       -0.6197861985        2.5204302862
 O         1.5720341796        0.2726474470        4.2545610458
 C        -0.0091050554        2.1480031645        1.4730034985
 C        -1.2191187073        1.7751836341        3.8957473554
 C         2.4501485826        3.4215229430        4.4965451402
 C         3.4080257115        4.5794792833        4.3303092252
 C         4.9122508606        4.4507090608        4.7712999341
 C         5.3927186609        3.4095642855        3.7567615709
 C         5.8229639067        3.8637024721        2.4489537359
 C         5.6178082568        5.8676589583        4.8634838103
 C         5.2214771498        3.7912470407        6.1419933116
 O         3.0965576584        5.5405997763        3.6204703695
 O         5.2628866407        2.2432953686        4.0362631939
 C         6.0431701562        2.7107421529        1.4577901187
 C         6.0674444043        3.2866697164        0.0289036342
 C         6.7876529169        2.4785274426       -1.1909693202
 C         6.5790526161        0.8943683240       -0.8505596744
 C         5.2734979194        0.2146698787       -1.0884822041
 O         5.3782906448        4.2129069254       -0.2442492989
 O         7.4402504683        0.3149330560       -0.2236138561
 C         6.0089273204        2.7938970485       -2.4986284188
 C         8.3268521985        2.7137861712       -1.2732358966
 C         5.4514564364       -1.3330233807       -1.2209396950
 C         4.1704603639       -2.1075289273       -0.7873446547
 C         3.8344689802       -3.5405951131       -1.2295612533
 C         2.3864129160       -3.7067141257       -1.9906049220
 C         2.2375575464       -2.8526563287       -3.2296360644
 C         4.9754653893       -4.0780529688       -2.2548786126
 C         3.8815263119       -4.4697610978        0.0175174372
 O         3.3678852477       -1.5636555750       -0.0194683590
 O         1.5670007551       -4.4472520077       -1.5020470559
 C         0.7722039830       -2.5374726213       -3.5182839699
 C         0.7974525198       -1.3889415824       -4.7476029674
 C        -0.5121553441       -0.8887306736       -5.3733245388
 C        -1.3798865801       -0.3749216130       -4.1804381019
 C        -1.0372840458        0.9604772400       -3.4761969794
 O         1.8805572251       -0.8757483536       -4.9932777255
 O        -2.2740092709       -1.0310885980       -3.6866610981
 C        -0.2858117005        0.2509700553       -6.4023769072
 C        -1.2193023886       -2.0782331605       -6.1246387640
 H        -4.7100519909        4.0832717701       -2.7932216699
 H        -5.2740535860        3.0723250778       -4.0970806625
 H        -6.4374097612        3.7093138664       -2.9606505167
 H        -8.5563834852        0.7455749252       -1.4693066170
 H        -8.2603100667       -0.4515450396       -2.6255632502
 H        -4.3937732967        1.0688995016        0.1983688908
 H        -5.8804071033        1.0501109519        1.1155235462
 H        -5.0296568693        2.5858967072        0.8178170272
 H        -7.8079394837        2.9435114358       -1.6607000554
 H        -7.9460255618        2.2875066721       -0.0323803837
 H        -6.9161973633        3.6319177501       -0.3797453303
 H        -9.3849394930       -1.5312099852       -0.8413507332
 H        -7.7386320966       -2.2415858784       -0.9252625530
 H        -5.1437578247       -1.8923526730        2.4914582798
 H        -5.6263277554       -3.4225420844        3.0546959147
 H        -7.3267306276       -1.3594036730        3.2336130793
 H        -7.6392386301       -3.1422285261        3.6219896649
 H        -8.9744788533       -1.8586492667        3.3141733973
 H        -9.9989490626       -3.1377720704        1.1147122549
 H        -8.6882972543       -3.8656474490        0.0071733947
 H        -8.9837295302       -4.4840335430        1.6551599523
 H        -4.2985149129       -4.3756688972        1.1122929404
 H        -3.4681173725       -3.9547019942        2.4856344951
 H         0.1374300083       -2.9521904616        1.9594882584
 H         1.1576196350       -2.5816722790        0.5333299473
 H        -2.1916813923       -5.3185408824        0.8268630188
 H        -0.9669554483       -4.5171213545        1.7036496476
 H        -0.6041451620       -5.1487033893        0.0860489664
 H        -2.9590583873       -4.0666563479       -1.7194622202
 H        -1.6882950649       -2.9152887808       -2.1956238375
 H        -1.3425156035       -4.5913123700       -1.7663404451
 H         1.6170200345       -1.1252064935        2.3157235066
 H         1.1719040865       -0.3306263769        0.8525727420
 H         3.2678338203        2.0711913126        3.0173675926
 H         2.0756483122        2.9345893967        2.4509784164
 H         0.7929953881        1.7958708070        0.7942270475
 H         0.0942963262        3.2147893207        1.6094015611
 H        -1.0405142329        1.9271564606        1.1048179844
 H        -1.0406771379        2.8407361571        4.1535133554
 H        -2.1512693539        1.7043166362        3.3619014098
 H        -1.1685696185        1.2683322890        4.8482473106
 H         2.8471711212        2.8235112719        5.2893394888
 H         1.3953198615        3.7826042135        4.7455584905
 H         5.0278111876        4.6450188903        2.1491100056
 H         6.6894352818        4.5741052983        2.6162287155
 H         5.2971119182        6.6756368457        4.2280585843
 H         6.6555661250        5.7307817836        4.4795446850
 H         5.7014494239        6.1932448753        5.8293442488
 H         6.2679983969        3.5265578611        6.2069255749
 H         5.0270012012        4.4258372820        7.0134429049
 H         4.7121530189        2.7877927495        6.3237722093
 H         6.9743318825        2.1958749141        1.7241473981
 H         5.2774393404        1.9867155348        1.4975202897
 H         4.7426499748        0.4819301318       -0.1707476585
 H         4.6667828587        0.5210286498       -1.8971424039
 H         6.3804972025        2.1372295349       -3.2480955049
 H         6.2207641007        3.8134223646       -2.8096976280
 H         4.9513998429        2.5336690265       -2.4112301553
 H         8.8222117485        1.9688347546       -0.7038132953
 H         8.7418515162        2.6716867834       -2.2071600220
 H         8.4673648081        3.6909081230       -0.8497801119
 H         6.2832695996       -1.6859907285       -0.6803307599
 H         5.8978235384       -1.6627571548       -2.1707809379
 H         2.9247279325       -1.9909885261       -3.1508346671
 H         2.6020926878       -3.4927701283       -4.0538894795
 H         5.0428968433       -3.4676413158       -3.1725058177
 H         4.6183825886       -5.0614508848       -2.5316042986
 H         5.9717681475       -4.1934919953       -1.7309221145
 H         3.6574491482       -5.4801670760       -0.3064353963
 H         4.7763571195       -4.5178469881        0.5098308171
 H         3.0592441689       -4.1829504907        0.6572012482
 H         0.2160191121       -3.5294446328       -3.6435160085
 H         0.1927970635       -2.0945674054       -2.7096144167
 H        -1.4782581694        1.1544592546       -2.5439934092
 H         0.0527278005        0.9576879211       -3.3395593899
 H        -1.2014209752        1.8138134096       -4.0460911472
 H         0.2271156733        1.0565243112       -5.8968882119
 H        -1.2813228775        0.5695592343       -6.6080978904
 H         0.2174043382       -0.1839190841       -7.2553363946
 H        -2.2977250820       -2.0402299525       -6.1561953668
 H        -0.8805378483       -2.1547143944       -7.1623029277
 H        -0.8961304783       -3.0324664293       -5.6733228660
 Na       -3.1325848868       -0.2601248123       -1.3694127842
