155

 C        -6.0326155039        2.8384594752       -3.4531924700
 C        -5.1100176180        2.2608119035       -2.3216143178
 C        -5.9595824824        1.7426010040       -1.0198276628
 C        -6.4159351217        0.2871968379       -1.4867622222
 C        -7.8693492986       -0.2158905546       -1.4350607058
 C        -4.9885829996        1.5975107937        0.1577557637
 C        -7.1436950078        2.7143207902       -0.6776534297
 O        -4.0338175588        1.8051149023       -2.4832115740
 O        -5.6274060396       -0.5065146235       -1.9129408539
 C        -7.9882071993       -1.6242289997       -0.8267372620
 C        -8.0919825011       -1.7415596618        0.7189601967
 C        -7.6357501432       -3.1990739726        1.5204268863
 C        -6.2250705858       -3.4853977426        1.1155567727
 C        -5.1445229927       -3.4531280709        2.1434918149
 O        -8.5519587395       -0.8774919364        1.4073215006
 O        -5.9644767768       -3.7030341447       -0.0734077962
 C        -7.8289890571       -3.1343288633        3.0920678820
 C        -8.5780001680       -4.3162262997        0.9263911662
 C        -3.7338711579       -3.7187185660        1.7555253593
 C        -3.2402267333       -2.8371751649        0.5615228681
 C        -1.8861761708       -3.0747456143       -0.1665733167
 C        -1.0417982263       -1.7226007524       -0.0277668762
 C         0.1293208168       -1.7556698907        0.8285100578
 C        -1.2538913294       -4.3632245008        0.3808880780
 C        -2.1650798418       -3.2072015735       -1.6331457217
 O        -3.9283774698       -1.9032150439        0.1311564987
 O        -1.3162564373       -0.7195671703       -0.6177756675
 C         0.4166598799       -0.4148955469        1.4147014810
 C        -0.5680244010       -0.1165829796        2.6156264723
 C        -0.3971934134        1.3808458053        3.1413899873
 C         1.0196994991        1.7951760589        3.8139642954
 C         1.9341297511        2.9224810359        3.4738423044
 O        -1.3409063513       -0.9258343795        3.1478079655
 O         1.4143016970        1.0445024859        4.6743323579
 C        -0.6826049618        2.2885492568        1.9655466637
 C        -1.5880712596        1.6677801544        4.2940224405
 C         2.3201724648        3.8077205080        4.7852139047
 C         3.4420310121        4.7890244492        4.6349892368
 C         4.9231915116        4.4109901133        4.9219371315
 C         5.4089863818        3.4332827074        3.7207786352
 C         5.9235064038        4.0428205471        2.4613944235
 C         5.7846231388        5.7034386109        4.8723824319
 C         4.9564055003        3.6239322408        6.2866651927
 O         3.1326388000        5.9621587873        4.2596015128
 O         5.3985505824        2.2291525537        3.8429403176
 C         6.4059265567        2.8616600121        1.5193556314
 C         6.1605820561        3.0973907537        0.0231520308
 C         6.8146767558        2.2372609394       -1.1476966038
 C         6.6122391782        0.6522712043       -0.7523540304
 C         5.2440260348        0.0788652900       -0.5766303600
 O         5.5064368208        4.0305179935       -0.3046735869
 O         7.5690456531       -0.0174366864       -0.4661723024
 C         6.0666138929        2.5988063624       -2.4918006172
 C         8.4195990713        2.4279145756       -1.2523726088
 C         5.2700185811       -1.4862356962       -0.7567117709
 C         3.8910104796       -2.0390828516       -0.6786647929
 C         3.7414133868       -3.5603559841       -1.0574430280
 C         2.6142325887       -3.5120098701       -2.1193145700
 C         2.7047847317       -2.7757330794       -3.4322673047
 C         5.0619350863       -4.2725441302       -1.5504206426
 C         3.2242066484       -4.2790801991        0.2131171018
 O         2.9175966612       -1.4286213863       -0.3447892964
 O         1.5619409412       -3.9705166861       -1.7450431843
 C         1.2511969388       -2.0877188730       -3.7184646810
 C         1.1552946237       -1.2097184792       -5.0769913684
 C        -0.3669852467       -0.9186590226       -5.3746691905
 C        -0.9310146266       -0.1137366445       -4.2760737143
 C        -0.2892836772        1.1974160531       -3.9401320473
 O         2.0756549509       -0.7891415925       -5.6948109446
 O        -1.9149827556       -0.4686052278       -3.6545388535
 C        -0.4021659571        0.1052492582       -6.5911500223
 C        -1.1665192882       -2.1912596700       -5.6961702666
 H        -5.6546216584        2.5306145513       -4.3522506107
 H        -7.0022614378        2.4846401210       -3.1447402098
 H        -6.1334603197        3.9307071082       -3.3558919349
 H        -8.4197609516        0.4765183339       -0.8071197815
 H        -8.1862830306       -0.1656506858       -2.4760953647
 H        -4.3237234838        0.6873604065        0.1394012813
 H        -5.5466344632        1.3618585139        1.0775372491
 H        -4.3327042281        2.4474749078        0.4062341606
 H        -8.0291226225        2.6507025694       -1.3213177604
 H        -7.4416949553        2.3606500378        0.2438457197
 H        -6.7620609813        3.6998953878       -0.5333802268
 H        -8.7393799199       -2.2773676077       -1.2092569168
 H        -7.1376466717       -2.2369367865       -1.0583489671
 H        -5.1777109131       -2.4565348251        2.5961083208
 H        -5.4734092186       -4.2625162877        2.8489537569
 H        -7.1852894520       -2.3505957323        3.5285346188
 H        -7.5512292910       -4.0613813701        3.4532342278
 H        -8.8384837076       -2.9840105912        3.3417237071
 H        -9.5480753349       -4.1792332880        1.2984186254
 H        -8.6895414193       -4.3199118713       -0.1884707619
 H        -8.1769127377       -5.2544186207        1.2611887336
 H        -3.5505342549       -4.8044472212        1.6537727868
 H        -3.2099690972       -3.3484463417        2.6834377797
 H        -0.2206269502       -2.4060076585        1.7033044731
 H         0.9766796416       -2.2288944187        0.4071046642
 H        -1.9029010670       -5.2329168382        0.2409871500
 H        -1.0574844377       -4.1578150958        1.4942307076
 H        -0.2945262397       -4.7146838913       -0.0821672472
 H        -1.7238019482       -4.1458372825       -2.0745644321
 H        -3.2110392536       -3.3308958554       -1.9507801517
 H        -1.8060229899       -2.3483983243       -2.1357695361
 H         1.3729716504       -0.3084689803        1.8342900134
 H         0.2897052781        0.2758177150        0.5247999078
 H         2.8776085806        2.5101448442        3.0473809042
 H         1.5528173391        3.5844039830        2.6443061012
 H         0.0953509186        2.1065615393        1.2450048766
 H        -0.6894184320        3.3829163696        2.2553128943
 H        -1.5243250823        1.8965719523        1.4046863630
 H        -1.6980032896        2.7348692323        4.4375693231
 H        -2.5460375081        1.3176821391        3.9385055882
 H        -1.3411016867        1.1429379891        5.0922582924
 H         2.5916688254        3.0442835891        5.5814939188
 H         1.4067755646        4.2219199355        5.1319585188
 H         5.1145950834        4.6096548037        1.9528259309
 H         6.6021052318        4.8313184349        2.7793882879
 H         5.5459178676        6.4458176722        4.1961984226
 H         6.7755450723        5.3391623368        4.7401725194
 H         5.7655502711        6.2437855181        5.8367385155
 H         5.9646961081        3.3370890330        6.6597315608
 H         4.6205331414        4.2739494827        7.0874158976
 H         4.5054871556        2.6518330990        6.1562847717
 H         7.4209246237        2.6359093345        1.7633137287
 H         5.6864904289        2.0953939832        1.8577166656
 H         4.8739475197        0.3135013399        0.4875409638
 H         4.4365704945        0.4719239605       -1.2249321798
 H         6.2749603269        1.9407266123       -3.3142688217
 H         6.2702342965        3.6264312184       -2.8993742433
 H         5.0541568375        2.7343685869       -2.1733916139
 H         8.7388360264        2.5336520638       -0.2706624841
 H         8.8162769740        1.5571511900       -1.7409249378
 H         8.7218797286        3.2974338111       -1.8032886981
 H         5.8732590517       -2.0001871804        0.0582333132
 H         5.8077051204       -1.6743130249       -1.6745240725
 H         3.5133633485       -2.0004962501       -3.2693248490
 H         2.9632250448       -3.4417761895       -4.2868553170
 H         5.5556736458       -3.8119824073       -2.3533103272
 H         4.7936393325       -5.3278980773       -1.8115744232
 H         5.8405711387       -4.3486538965       -0.7431111904
 H         3.1704944583       -5.3603542660        0.0373244216
 H         3.8551708108       -4.1776385515        1.0611989687
 H         2.2905576256       -3.8409052645        0.5798072582
 H         0.6572361892       -2.8918171840       -3.6993588410
 H         0.9948739952       -1.3616529507       -2.9843427073
 H         0.6429540630        1.0484428444       -3.4563977863
 H         0.0844357950        1.7600344330       -4.8136444480
 H        -0.8351823510        1.9502679057       -3.4013954929
 H         0.4927886856        0.6145060885       -6.7634374575
 H        -1.3919580822        0.6663231607       -6.4399054238
 H        -0.6069676896       -0.5044712680       -7.4558327116
 H        -1.9497851969       -2.0040042121       -6.4586523386
 H        -0.5575073120       -2.9602022279       -6.1025522388
 H        -1.7205881474       -2.6040300808       -4.8921493888
 Na       -3.3679345739       -0.3887361554       -1.7778864770
