155

 C        -5.9175023221        3.4596636802       -3.3102765300
 C        -5.4261927900        2.2139449039       -2.4409825809
 C        -6.3647038787        1.6370964612       -1.3926605692
 C        -6.5108807571        0.0721932209       -1.5255435297
 C        -7.7709734429       -0.5661573742       -0.9088918505
 C        -5.6909718061        1.9065750874       -0.0515181448
 C        -7.7819555510        2.2593373953       -1.4698567769
 O        -4.2615953538        1.8907758806       -2.5199685708
 O        -5.6924964922       -0.6002041776       -2.1578630362
 C        -7.6173916640       -2.0973418123       -0.8032385990
 C        -7.7666715417       -2.6590840328        0.6034169772
 C        -7.4021946860       -4.1395002937        0.8703053933
 C        -5.8095720319       -4.4242745898        1.0206879881
 C        -4.9841837487       -3.2456337388        1.7913274476
 O        -8.3464432352       -1.9505529289        1.4548676041
 O        -5.2482337776       -5.4031623729        0.5861610647
 C        -8.0492063090       -4.6269187554        2.2196223423
 C        -7.8630461160       -5.1029868577       -0.2589849319
 C        -3.4793213594       -3.3783519260        1.5633000378
 C        -2.9586572010       -2.5164770922        0.4052946655
 C        -1.3458181120       -2.6258844139       -0.0268331499
 C        -0.7601580314       -1.2058038788        0.0695082915
 C         0.2449265915       -0.7734403318        1.1925909672
 C        -0.4333438416       -3.6525781311        0.7996855449
 C        -1.4864861874       -3.0695850893       -1.4983306566
 O        -3.7110364851       -1.6722543742       -0.0586345698
 O        -1.1788510466       -0.3467113521       -0.6609865376
 C         0.0459381779        0.7522664591        1.5324624565
 C        -1.1045384617        0.9471020994        2.5710704855
 C        -1.1057617200        2.1046844365        3.6210435881
 C         0.2826942939        1.9609459910        4.3452933537
 C         0.8759552993        3.1638503900        5.2534334554
 O        -1.9148815284        0.0803371461        2.6655665429
 O         0.8038961918        0.8757601572        4.4393939863
 C        -1.2523617192        3.5617303303        3.0201526267
 C        -2.1317779467        1.8810629085        4.7280918774
 C         2.4495341983        3.0601504121        5.4386821332
 C         3.1464250466        4.1812232138        4.6918791252
 C         4.7535980070        4.2645845113        4.7464759529
 C         5.4142374160        3.4112821027        3.6948166340
 C         6.0584267290        4.1468472380        2.4969167313
 C         5.0814544859        5.8998438341        4.7537368431
 C         5.4047142840        3.7904653019        6.1376098685
 O         2.5214634897        5.1003619516        4.2301988995
 O         5.5589796365        2.2140486365        3.8864400638
 C         7.0426855093        3.3454854488        1.5457819789
 C         6.4513720874        3.0781828993        0.2206614843
 C         7.2421270584        2.1438226028       -0.7968927216
 C         6.9965915539        0.6127380839       -0.4781562671
 C         5.5523802240        0.0681123256       -0.3195024695
 O         5.2937901849        3.4474746410       -0.0338337157
 O         7.9628668457       -0.1096680735       -0.3627164205
 C         6.6847441083        2.5015461128       -2.2456186626
 C         8.7351711095        2.3904077339       -0.7177165681
 C         5.4288796340       -1.4414595588       -0.4345469676
 C         3.9346247597       -1.8875652676       -0.7163038241
 C         3.5795679764       -3.3108352580       -1.0522984185
 C         2.3146392373       -3.4185198431       -1.9550772477
 C         2.3602843872       -2.8415558612       -3.4156420649
 C         4.7336843623       -4.0432673834       -1.7620056051
 C         3.2368164471       -4.1647454322        0.2266786407
 O         3.0348449457       -1.0627871560       -0.5013123934
 O         1.3183108298       -3.9710866516       -1.5683022818
 C         1.0752684050       -2.1457804362       -3.9493382648
 C         1.2384149275       -1.2383334640       -5.1496483612
 C        -0.1322535196       -0.6583882598       -5.8118871090
 C        -1.0564880470       -0.2249598727       -4.5943697877
 C        -0.9189314557        1.2099601348       -4.0061821422
 O         2.2572265012       -0.9249638183       -5.6552420409
 O        -1.8225111234       -1.0288297307       -4.0852676247
 C         0.2190011372        0.3736816350       -6.8466932537
 C        -1.0371258800       -1.8286960233       -6.4963864319
 H        -5.5363929658        4.3708165847       -2.7257396379
 H        -5.3760516525        3.5698133078       -4.2464168622
 H        -6.9878337256        3.3944521170       -3.4357944128
 H        -8.0626790098       -0.2018674649        0.1418525402
 H        -8.5043485444       -0.3286105150       -1.7127717144
 H        -4.7919904267        1.4140543788        0.1539658248
 H        -6.3059787540        1.7478363022        0.8419450766
 H        -5.4531218500        2.9603374900        0.0514614744
 H        -8.4124779734        1.8862312965       -2.2839882461
 H        -8.3848582814        2.1515585966       -0.4991162429
 H        -7.6619079798        3.3449609864       -1.5751660972
 H        -8.4756048863       -2.4801472717       -1.3222783654
 H        -6.6144448373       -2.5014232272       -1.1644876235
 H        -5.3763045364       -2.3184247777        1.5082754245
 H        -5.2670449836       -3.2119490209        2.8475980374
 H        -7.6532029094       -4.0997605247        3.0833773295
 H        -8.0785417006       -5.7119102850        2.5993476861
 H        -9.0967889766       -4.1507292365        2.2446619614
 H        -8.8571948378       -4.9240471953       -0.6179005981
 H        -7.1599245025       -4.9855228651       -1.1447685367
 H        -7.8148827607       -6.0797720959        0.0624447147
 H        -3.2210354863       -4.4173238908        1.2800146463
 H        -2.9324480708       -3.0491421894        2.4176474872
 H         0.3633180644       -1.4554956190        2.0337877965
 H         1.2484055782       -0.8552653844        0.7361195957
 H        -0.6299597449       -4.6122563755        0.3188646750
 H        -0.7310730303       -3.6958213060        1.8008955127
 H         0.5575066801       -3.2992782102        0.5833928003
 H        -2.0199206354       -2.3728021408       -2.0782006727
 H        -0.5365886709       -3.2761131386       -1.9486143799
 H        -1.9533163330       -4.0797153466       -1.5275368454
 H         0.9855234179        1.2196539183        1.6959681704
 H        -0.2643172481        1.3053212770        0.5965535620
 H         0.7953705108        4.0242402461        4.6355203097
 H         0.3075097247        3.3745090927        6.1741217852
 H        -0.5221653287        4.0526716710        2.3867404028
 H        -1.4810596570        4.2314886772        3.8105733475
 H        -2.1586643988        3.4690466426        2.3951525101
 H        -1.8019989893        2.5967270838        5.5576586700
 H        -3.1499746397        2.2678056894        4.4532994222
 H        -2.0133945362        0.8283361146        5.1208461576
 H         2.9859578539        2.1032114550        5.2663447397
 H         2.6064599212        3.2458167245        6.4856158086
 H         5.1981498350        4.3619145821        1.8010115279
 H         6.4487419000        5.1181073639        2.7059090733
 H         4.6425539089        6.4089409445        3.8392143286
 H         6.1587271742        5.9136873515        4.5455709999
 H         4.6529497718        6.2913682483        5.6489234475
 H         6.3473873705        4.3117261095        6.2337792750
 H         4.7382774534        3.9920848452        6.9699211614
 H         5.5204678986        2.6879927986        6.0174499777
 H         8.0073191460        3.8249686101        1.3889300924
 H         7.3892606510        2.4207987545        2.0617977479
 H         5.2228865636        0.3522383947        0.6919209399
 H         4.8213969358        0.4633941045       -0.9355185745
 H         6.8268461056        1.6018258075       -2.8658014818
 H         7.2350135648        3.3200871225       -2.7543207580
 H         5.5732632139        2.5665002131       -2.3489133369
 H         9.1502835877        1.8327135120        0.1735103336
 H         9.3069005726        2.0553150574       -1.5769771738
 H         8.8580059146        3.4858638535       -0.6022248461
 H         5.7910078676       -1.7836622407        0.4773149519
 H         6.1688989642       -1.8648708920       -1.1704173208
 H         3.2191444635       -2.1671987932       -3.4279557376
 H         2.5847742194       -3.6514791929       -4.1086685961
 H         5.0723273195       -3.5970973334       -2.6933741311
 H         4.4499944097       -5.0577957143       -1.8869833824
 H         5.6478628062       -4.0875767303       -1.1650604346
 H         2.9966859008       -5.2219425316       -0.0368549820
 H         3.9807489262       -4.2978341788        1.0603290027
 H         2.3459780072       -3.7111534944        0.7225137828
 H         0.3117241761       -2.9233089653       -4.2360366199
 H         0.6294958531       -1.7136852712       -3.1425618477
 H        -1.1431605488        2.0240116347       -4.7866494140
 H        -1.5973501795        1.4326638885       -3.1543825902
 H         0.0751540517        1.6343137655       -3.7066437788
 H        -0.6780312183        0.7066532859       -7.4797641780
 H         0.8675541173       -0.1358142058       -7.5035827654
 H         0.7631959370        1.2966021867       -6.5344952582
 H        -2.0505020570       -1.6000748594       -6.5397538936
 H        -0.7928604354       -1.8312514335       -7.5393992207
 H        -0.8288007555       -2.8143062238       -6.1338019431
 Na       -3.3539443633       -0.4835018265       -2.1478561788
