155

 C        -6.0529272693        3.4575812208       -3.2409077323
 C        -5.4354606493        2.2271811276       -2.5451708888
 C        -6.3445799184        1.5581859188       -1.4118299846
 C        -6.4405883637        0.0421066030       -1.6383177408
 C        -7.7635663249       -0.7267593403       -1.3608630589
 C        -5.6988487336        1.7282161603       -0.0513731247
 C        -7.7290974428        2.2231163808       -1.4352471988
 O        -4.5278393617        1.5906936441       -3.0036673960
 O        -5.5001671408       -0.6468651030       -1.8665325007
 C        -7.5719368153       -2.3280632806       -1.2247511616
 C        -7.6631627891       -2.8336689730        0.2334886570
 C        -7.1688518128       -4.3527319489        0.6604802652
 C        -5.6344666326       -4.3366228922        0.9982270333
 C        -5.1587334028       -3.2779089938        1.9864764515
 O        -8.0010609188       -2.1140920728        1.1849992300
 O        -4.8763849731       -5.1196437767        0.4384853019
 C        -7.9690790244       -4.7000717136        1.9133532430
 C        -7.3949845901       -5.2962454374       -0.5355002147
 C        -3.6751223982       -3.1061427057        2.0289472619
 C        -3.2187392170       -2.4341365120        0.7039028143
 C        -1.6194057877       -2.3732773858        0.4459362490
 C        -1.0249302846       -1.0158302228        0.2196018434
 C         0.2566211064       -0.3493314540        0.9696072792
 C        -0.8096824547       -3.0349576921        1.6187650687
 C        -1.3802264468       -3.2688739361       -0.8209829433
 O        -3.9697703014       -1.9671315761       -0.1375629682
 O        -1.4509181623       -0.3394374587       -0.6836241219
 C        -0.0874101855        1.0732655032        1.3220776663
 C        -1.2808215552        1.2139110685        2.3759970064
 C        -0.9590536332        2.0019121260        3.6604760011
 C         0.4174950717        1.7174861609        4.3977415727
 C         0.8879825943        2.6936007925        5.5383374764
 O        -2.4305934372        0.9072355624        2.0910090687
 O         1.0830049399        0.7961087000        4.0331971688
 C        -0.9749242161        3.4305693816        3.3026333038
 C        -2.1704267996        1.8150835695        4.7098221332
 C         2.4303615819        2.8255044435        5.5612317221
 C         2.9983701825        3.9937915965        4.7180268588
 C         4.4964058045        4.4333974601        4.9961482911
 C         5.3370650863        3.4949148784        3.7614345175
 C         6.0504673399        4.2733381067        2.6284100688
 C         4.6512860726        5.8872548241        4.8421642736
 C         5.1259677547        3.9572280127        6.2602034364
 O         2.3700041113        4.3614535881        3.7525979911
 O         5.4697912576        2.2703990046        3.9507099905
 C         6.9940840616        3.4239056098        1.7269029682
 C         6.4399405230        3.0585378608        0.3166607218
 C         7.2906248166        2.1477329979       -0.6784724065
 C         6.9676954812        0.6422886661       -0.3720233150
 C         5.5171851091        0.1383543492       -0.3967386801
 O         5.3721854617        3.4349673685       -0.1188027014
 O         7.9308148733       -0.0688998265       -0.2230730590
 C         6.9691007666        2.4756890805       -2.1416166466
 C         8.8563849600        2.3835675161       -0.3916177740
 C         5.3578904957       -1.3196193779       -0.8715189101
 C         3.9422553306       -1.8605819596       -0.9392932721
 C         3.8911423604       -3.3849408654       -1.3320902987
 C         2.5292234104       -3.5218396856       -2.1585173192
 C         2.4584920257       -2.4099525772       -3.2827206308
 C         5.0984702423       -3.9148163324       -2.1585491826
 C         3.6695588383       -4.1513209096       -0.0203701447
 O         2.9603488769       -1.1999599359       -0.5847783102
 O         1.6177351772       -4.2503070348       -1.9160309291
 C         1.1945591185       -2.4796927543       -4.0951861585
 C         1.1035848557       -1.2397719697       -5.0681840700
 C        -0.3322632606       -0.7829273485       -5.5857215848
 C        -1.1206518897       -0.1987936609       -4.3186165371
 C        -0.6465476798        1.1192083536       -3.7111814462
 O         2.1137158472       -0.5979857732       -5.3270505520
 O        -2.0502719224       -0.8626007930       -3.9370123863
 C        -0.0569717180        0.3786344506       -6.5799637733
 C        -0.9138561154       -2.0141929080       -6.2793705217
 H        -6.4013504716        4.1425219009       -2.4246735995
 H        -5.3091131028        3.8729879978       -3.8537096744
 H        -6.8702889014        3.1041680639       -3.8375866281
 H        -8.1192631248       -0.1131896756       -0.5005915326
 H        -8.4627552123       -0.5223379708       -2.1784783022
 H        -4.7538134795        1.1804758653        0.0499617875
 H        -6.2745593096        1.2800677074        0.7841488190
 H        -5.4471116352        2.7476391472        0.2856900943
 H        -8.2111853227        2.0300801438       -2.3233255605
 H        -8.3726653519        1.7824896008       -0.6697206503
 H        -7.7354159494        3.2698515141       -1.2754689527
 H        -8.2566508073       -2.8967495084       -1.8600774225
 H        -6.4505855147       -2.4680876061       -1.4819548738
 H        -5.7139700784       -2.3597339135        1.7139300607
 H        -5.5581880689       -3.4780286058        3.0375322150
 H        -8.0362342893       -3.9652049315        2.7379686385
 H        -7.5888490999       -5.5484863752        2.4336587180
 H        -8.9528067998       -5.1498283778        1.6308409526
 H        -8.3560936012       -5.5007084485       -0.7996724977
 H        -6.8743431334       -5.0654237857       -1.4277492108
 H        -6.9512898751       -6.1424354330       -0.1747455437
 H        -3.1512397826       -4.1158969503        2.0685599301
 H        -3.3837774035       -2.4774797043        2.8601857758
 H         0.6821106618       -0.8666291746        1.8174868841
 H         1.0654465998       -0.3848232742        0.1875503597
 H        -1.0059726269       -4.1398435988        1.5727441564
 H        -1.2473089720       -2.5560014150        2.4988746429
 H         0.1760102483       -2.7941234607        1.3311856083
 H        -1.8533139358       -2.8306071944       -1.7101021754
 H        -0.3273682748       -3.3574317519       -1.0617853134
 H        -1.8507049097       -4.2812926026       -0.6096272633
 H         0.8362059295        1.5418925807        1.6859521629
 H        -0.3407014956        1.6696261468        0.3874467841
 H         0.4896671136        3.5914799496        5.1452045084
 H         0.2565313366        2.5046609316        6.4476289451
 H        -0.1454253715        3.6368136953        2.5619314666
 H        -0.9699920725        4.1401865874        4.1104089071
 H        -1.8669418718        3.6688902518        2.6520682917
 H        -2.2553691348        2.7470611731        5.3041400847
 H        -3.1955953268        1.8761160296        4.2923854814
 H        -1.9561214779        0.9665076255        5.2477365553
 H         2.8995924343        1.9245690732        5.1345304480
 H         2.8082408494        2.9135984808        6.5605450763
 H         5.3846549314        4.7497731676        1.9648560541
 H         6.5771554539        5.0840397030        2.9850148661
 H         4.2634617265        6.1542103266        3.8405990538
 H         5.6823022886        6.1004149939        4.8580356449
 H         4.1261349466        6.3398863790        5.7164212506
 H         6.2080089760        3.9851957029        6.2386036682
 H         4.8578146930        4.7379552689        6.9558972591
 H         4.8565287329        2.9130890400        6.4442367368
 H         7.9033559605        4.0178704082        1.5154267079
 H         7.4861201765        2.5718662025        2.2765539723
 H         5.0711189391        0.2499108737        0.6183704186
 H         4.9225366576        0.7693167072       -0.9894935060
 H         7.7872205009        2.0156664999       -2.7468163382
 H         6.9431767514        3.4995901822       -2.4148738503
 H         5.9634519994        2.1760408444       -2.4969502251
 H         9.0504886194        2.3509371810        0.6499081962
 H         9.5233705075        1.7642321718       -0.9337008296
 H         9.0248483952        3.3497148427       -0.6913017566
 H         6.0727918383       -1.9086629127       -0.4313233632
 H         5.8397720410       -1.4729427598       -1.8938762718
 H         2.4878984243       -1.4558085513       -2.7401955998
 H         3.3349505345       -2.4999966537       -3.9072818116
 H         5.3716888118       -3.3066616093       -3.0743560585
 H         4.7544983977       -4.8675961838       -2.5144840049
 H         5.9931377827       -4.0912628654       -1.5755048128
 H         3.0626613022       -4.9715392916       -0.3279860662
 H         4.5495583997       -4.6461886811        0.5193309113
 H         3.2286830843       -3.5518134762        0.7474978927
 H         1.1528336504       -3.4990676047       -4.5435975254
 H         0.3640939972       -2.5853617317       -3.3997069297
 H        -1.4855703540        1.8738138156       -3.7289207868
 H        -0.5079666554        0.9993419563       -2.6491660478
 H         0.0612062378        1.7398049814       -4.3032439228
 H         0.4055523092       -0.1407551810       -7.4628773059
 H         0.4927903796        1.1737154731       -6.1710228420
 H        -0.9006558520        0.9353701492       -6.9825328140
 H        -1.3712898892       -1.7829838013       -7.2163292717
 H        -0.1992777653       -2.8490344758       -6.4434120169
 H        -1.7391392959       -2.3380615679       -5.5990376851
 Na       -3.2751935603       -0.2421108864       -2.0996445330
