155

 C        -6.2520690169        3.0299030537       -3.7189176943
 C        -5.8356585494        1.7552342892       -2.9719946118
 C        -6.9473128377        0.9296996146       -2.3032575077
 C        -6.5768529798       -0.6332393941       -2.2049308593
 C        -7.6824961323       -1.6411709083       -2.1546482851
 C        -6.9424427802        1.4670044005       -0.7888048713
 C        -8.3262026158        1.0153670094       -3.1023090707
 O        -4.6329551417        1.5391718195       -2.8354943617
 O        -5.4044738943       -0.9612441573       -2.0241113440
 C        -7.2124132371       -3.0796761307       -1.8461282279
 C        -7.3265673288       -3.3914148550       -0.3255237508
 C        -6.4005642827       -4.6689813452        0.1542544898
 C        -5.0185705999       -3.9253027750        0.6330745902
 C        -4.9800360127       -2.9806299212        1.8013282729
 O        -7.8893113079       -2.6357506065        0.4094753614
 O        -4.0645577856       -3.9717226820       -0.0634077145
 C        -7.0233007147       -5.4094552920        1.4546536360
 C        -6.1361552062       -5.5589750559       -1.0001613442
 C        -3.5565577770       -2.7046112494        2.1018483400
 C        -2.9286029232       -1.8606909924        1.0131109406
 C        -1.2548880857       -1.6668129492        0.7547685932
 C        -0.9948638257       -0.2183699293        0.5604524470
 C         0.0569510620        0.4205040186        1.4832430150
 C        -0.4984591432       -2.4940920040        1.9578627870
 C        -1.1044142337       -2.5243909172       -0.5645421133
 O        -3.5259557531       -0.9963819757        0.4521617495
 O        -1.4975883419        0.4646561559       -0.3519794762
 C        -0.3800162482        1.8117159093        1.8576004073
 C        -1.4495971662        1.8422905106        2.9628844694
 C        -1.2189979821        2.4158511182        4.3031267828
 C         0.0277962489        1.6218185173        5.0642684174
 C         0.7604009136        2.0731312587        6.2348119504
 O        -2.5407659417        1.3758998408        2.5778305006
 O         0.2271943483        0.4811949785        4.6826854167
 C        -0.9617505785        3.9686415126        4.3801271333
 C        -2.6422662296        2.1648919486        5.0752373349
 C         2.2085064750        2.1277149357        5.9739596994
 C         2.6224215694        3.1421403652        4.8691304946
 C         3.7623931929        4.1876327377        5.2169617291
 C         5.0783909653        3.7774860644        4.4584057427
 C         4.9716559806        3.2752192136        2.9220922751
 C         3.4654107964        5.5572773579        4.6267425586
 C         4.0758228354        4.2835581186        6.7070422252
 O         2.2238597760        3.0954965071        3.7352574119
 O         6.1043580438        4.0000820001        5.0029189494
 C         6.3292577557        2.8122820785        2.4241020954
 C         6.3994994920        2.7996434698        0.8961330334
 C         7.6719884680        2.2714654786        0.1590953669
 C         7.3828794452        0.6405858177        0.0194405981
 C         6.0573412232        0.2533718989       -0.6272831595
 O         5.6297423275        3.4571472721        0.2110942346
 O         8.0714019376       -0.1572138588        0.6026880270
 C         7.7541221250        3.0240395523       -1.1339629404
 C         8.9268794153        2.3799968090        1.0147949020
 C         6.0733951950       -1.3220192075       -1.0530399492
 C         4.6942800459       -1.7490096432       -1.4735008389
 C         4.6456780887       -3.0236424147       -2.3668284719
 C         3.2181505979       -3.3600317906       -2.8887226386
 C         2.6945808015       -2.1090812357       -3.7676685392
 C         5.5145990189       -2.8063285356       -3.6690941691
 C         5.3278235850       -4.2196147214       -1.5740888607
 O         3.6635185944       -1.1429007993       -1.1192532827
 O         2.5247210371       -4.2886115159       -2.5388327219
 C         1.1077837738       -2.0366906508       -3.7333773481
 C         0.6194072185       -1.1835734131       -4.9207969352
 C        -0.8530403891       -1.4701246190       -5.6838063069
 C        -1.8110922317       -0.5081293912       -4.8124928690
 C        -1.9093830890        0.9766868817       -5.0773536317
 O         1.1909598967       -0.2010297466       -5.2624896305
 O        -2.4123934156       -1.0439374209       -3.9264876623
 C        -0.7999309367       -0.7551602093       -7.0177479706
 C        -1.4087672766       -2.8832513425       -5.6082623845
 H        -7.0951979007        3.5682760300       -3.2136550225
 H        -5.4182117716        3.7538572325       -3.7953158573
 H        -6.6014140831        2.5870277699       -4.6550154277
 H        -8.4268823012       -1.4341321069       -1.4131462215
 H        -8.0840089315       -1.6615003744       -3.1126642407
 H        -6.6252117642        0.5819301934       -0.1768252409
 H        -7.8896374729        1.8319463286       -0.4506613037
 H        -6.1898021736        2.2183609944       -0.6465916759
 H        -8.0246596876        0.8311569124       -4.1539043771
 H        -9.0026787452        0.2064746479       -2.7547717572
 H        -8.9269536948        1.9847598130       -3.0351639871
 H        -7.7378749184       -3.7529622339       -2.4713196732
 H        -6.1426497482       -3.1939310589       -2.0160502253
 H        -5.4001474892       -1.9987592285        1.4630416103
 H        -5.6434040557       -3.2536678593        2.7400978357
 H        -7.5865444769       -4.7476399552        2.1053042472
 H        -6.4160799922       -5.9623186520        2.0922119953
 H        -7.7252015501       -6.1516333537        1.1720449761
 H        -7.0213359990       -5.6345732195       -1.6752790732
 H        -5.2728578170       -5.0130971235       -1.5470075044
 H        -5.7135340857       -6.4974925238       -0.6451246366
 H        -3.0421679589       -3.6245610330        2.3454236927
 H        -3.4886880187       -2.1439891255        3.0662761480
 H         0.2640367987       -0.1394869330        2.4095430616
 H         1.0147626659        0.5469540816        0.9722710182
 H        -0.7965463533       -3.5623530248        1.7205948406
 H        -0.9292461522       -2.3245837805        3.0278891834
 H         0.5658699200       -2.2998408949        2.0652966078
 H        -2.0361534068       -2.5307425477       -1.1352101411
 H        -0.3658454991       -2.1932023940       -1.2758814345
 H        -0.8936244140       -3.5932278679       -0.2701321716
 H         0.4399719137        2.5231528787        2.0007366791
 H        -0.9739372215        2.2357949162        0.9948731953
 H         0.3865687990        3.0511208621        6.6130288518
 H         0.6262179537        1.3774199745        7.1013234314
 H        -0.2342902385        4.2405048749        3.5586876665
 H        -0.5678723541        4.1801006153        5.3276752361
 H        -1.8685923914        4.5895715493        4.2415651628
 H        -2.5673844667        2.5534181814        6.0111433800
 H        -3.4619193869        2.7339741199        4.8197981757
 H        -2.9281222468        1.1216716340        5.0361260446
 H         2.4999418045        1.0780842393        5.6577028042
 H         2.6769621873        2.3027913012        6.9318123302
 H         4.3240815561        2.3961086804        2.8457788205
 H         4.5852062947        3.9509559888        2.2084517545
 H         3.7445455811        5.6541753452        3.5695704290
 H         4.0764575148        6.2565951632        5.0889042446
 H         2.4404230954        5.9241429713        4.9188361202
 H         5.0194082270        4.7682399461        6.9450684363
 H         3.2710588257        4.7998629098        7.2238776392
 H         4.3708522483        3.3675677404        7.1875480283
 H         7.1693780733        3.4364090543        2.8173680710
 H         6.6323746353        1.8161974606        2.8344362417
 H         5.1005504234        0.3005523249       -0.0902178835
 H         5.8799948575        0.7865751825       -1.6245358686
 H         8.7043779263        2.7552633071       -1.6459179105
 H         7.7467543626        4.0702203976       -0.9696707731
 H         6.8043120855        2.9086500965       -1.6799268675
 H         8.7553047259        2.0291611575        2.0746940422
 H         9.8515792504        1.7940827783        0.5934682351
 H         9.2287559645        3.4620576891        1.1509907694
 H         6.1028257230       -1.7540719225       -0.0514363461
 H         6.8583786664       -1.5391720060       -1.7627298824
 H         3.1753719958       -1.2184927935       -3.3265117515
 H         2.9649132408       -2.1414847976       -4.8836760261
 H         5.1439667373       -1.9774744274       -4.3124554652
 H         5.3714122588       -3.6131546896       -4.3167340137
 H         6.5249532867       -2.6158062783       -3.3698808911
 H         4.9496828824       -5.0942631690       -2.0431332706
 H         6.4668343429       -4.2873470502       -1.6484153468
 H         5.1357005752       -4.1230287097       -0.5218883047
 H         0.6118563602       -2.9326692544       -3.7100276089
 H         0.8046443465       -1.5922707666       -2.7712683979
 H        -0.9697520906        1.4722693554       -5.2162024434
 H        -2.7454769198        1.1080343664       -5.7195400625
 H        -2.2135764799        1.3775967470       -4.0700888676
 H        -1.5973253696       -0.0995339269       -7.3195419955
 H        -0.5374666078       -1.4877887676       -7.8293162232
 H        -0.0472307454       -0.0681879053       -7.0196119647
 H        -2.4348185258       -2.7356234976       -5.6655697704
 H        -1.1140475369       -3.4548242317       -6.4660113404
 H        -1.1918353016       -3.4356500544       -4.6943437955
 Na       -3.1960182071       -0.1293530440       -1.7923684521
