155

 C        -6.2368716020        2.8600188677       -4.3419014724
 C        -6.0586193305        1.7819899562       -3.3223757881
 C        -7.1030783822        0.5866573181       -3.0091059292
 C        -6.2968976738       -0.8347775543       -2.8217509241
 C        -7.0271154273       -2.0992139559       -2.4901012801
 C        -7.9600498509        0.8550985553       -1.6996065283
 C        -8.2026908723        0.5802656730       -4.1648773816
 O        -5.0323879660        1.8028805430       -2.6511932710
 O        -5.0652790267       -0.7970629785       -2.7981007333
 C        -6.1022578954       -3.1532639264       -1.8743946827
 C        -6.6479699928       -3.7231595557       -0.5097267907
 C        -5.8987429523       -4.8901097089        0.2930585844
 C        -4.4748470487       -4.4387860585        0.8274004224
 C        -4.4199396882       -3.1746942531        1.8405633154
 O        -7.6517789458       -3.2503356596       -0.0427030442
 O        -3.4909127114       -4.9729625204        0.3858154369
 C        -6.5975856158       -5.2499306387        1.6862740158
 C        -5.7758194816       -6.1221876535       -0.5710813324
 C        -2.9413567805       -2.6452979792        1.9304283022
 C        -2.6676356745       -1.7235177277        0.7886154189
 C        -1.2209403055       -1.3033925558        0.5869353899
 C        -1.2196563997        0.3070099138        0.6186037106
 C        -0.3510833007        1.0448697069        1.6763266518
 C        -0.2241534834       -1.9585871661        1.5764212998
 C        -0.8297882132       -1.7214666500       -0.8182917898
 O        -3.5092034724       -1.3952826660       -0.0324494819
 O        -1.9281287049        0.8413634101       -0.2062648045
 C        -1.0845334953        2.1227168095        2.4329181620
 C        -1.8929697785        1.6356386701        3.5970810497
 C        -1.6828962516        2.3757618410        4.9672859660
 C        -0.2173306026        1.8270098339        5.6313682015
 C         0.5643557272        2.5912591272        6.6741951670
 O        -2.6264774885        0.6755531711        3.4433592581
 O         0.2806869124        0.8019282702        5.2592901555
 C        -1.5643572596        3.9374745820        4.7898315064
 C        -2.7763301554        1.8305756846        5.8949597781
 C         2.0857441236        2.4233774655        6.4528225312
 C         2.4595346284        3.3138571189        5.1874809466
 C         3.3758987304        4.5231921196        5.3413134546
 C         4.8071215922        3.8566358308        5.0060603941
 C         5.3144135348        3.8484088739        3.5136777969
 C         2.8440013236        5.5490763514        4.3497777451
 C         3.4414184934        5.0576346267        6.7765304394
 O         1.8740042720        3.0772772931        4.1554452418
 O         5.3281382545        3.2469548847        5.8935456789
 C         6.3563765145        2.7550447694        3.3140582944
 C         6.3301038147        2.3966571295        1.8143447432
 C         7.6300382118        1.9526232239        1.0962399972
 C         7.3016282786        0.5400945862        0.4539882192
 C         6.3408759409        0.3760537939       -0.7418217780
 O         5.2698412001        2.3643408852        1.2278851597
 O         7.7639669450       -0.4653048552        0.9257832188
 C         7.8966520255        3.0187346722        0.0411537346
 C         8.8281982689        1.8172265863        2.0230751856
 C         6.2644706460       -1.0639058441       -1.3168625522
 C         5.1034199318       -1.0842082721       -2.3203565635
 C         4.9623967060       -2.4407360996       -3.2256477335
 C         3.4310795539       -2.4855290411       -3.3810249186
 C         2.8066686798       -1.7772029683       -4.7048258668
 C         5.7830176330       -2.0758492795       -4.4629216474
 C         5.5385562014       -3.7322078098       -2.5091575512
 O         4.3243207438       -0.1784983554       -2.5187414048
 O         2.7404856914       -2.8621975018       -2.5024615043
 C         1.3399320352       -2.4441065964       -4.7411196313
 C         0.4456388786       -1.7386469469       -5.7414769061
 C        -1.1493560385       -1.7797395072       -5.5938469619
 C        -1.6907992479       -0.5538397043       -4.8558121960
 C        -1.7356350970        0.9276920536       -5.4745533803
 O         0.8808308361       -1.1128859285       -6.6975376371
 O        -2.1640696428       -0.7670877701       -3.7580949533
 C        -1.8206350974       -1.7352051715       -7.0639885715
 C        -1.4207730969       -3.0662248811       -4.9090639684
 H        -7.1724018596        2.7510268475       -4.8644576573
 H        -6.3497217714        3.7962178373       -3.7024989990
 H        -5.3476186093        2.8985789617       -4.9967953717
 H        -7.8063783981       -1.9456166763       -1.7565837832
 H        -7.5884779036       -2.3611325740       -3.3235920416
 H        -8.0913600843        1.9269016437       -1.4581262235
 H        -7.4778921656        0.3182822453       -0.8889411200
 H        -8.9075459212        0.4371449371       -2.0190328130
 H        -7.9458583662        0.4423416065       -5.1688360820
 H        -8.8984541807       -0.1667315122       -3.9445196504
 H        -8.7866160401        1.4717334328       -4.1648480700
 H        -5.8055172544       -3.8863227355       -2.6385772003
 H        -5.1516007227       -2.7007776091       -1.6633086658
 H        -5.0191513646       -2.3317230709        1.4579880172
 H        -4.6653685353       -3.3903272431        2.9354222023
 H        -6.5105910215       -4.5145934393        2.4414184155
 H        -6.2515721280       -6.2572099192        2.0405555912
 H        -7.6203113167       -5.4850205148        1.4068918150
 H        -6.7402091213       -6.3199862440       -1.1954178739
 H        -4.9254936682       -5.9948673359       -1.3364886278
 H        -5.5601920346       -7.0896094700        0.0053512461
 H        -2.3373994692       -3.5306507901        1.8257801491
 H        -2.8055939276       -2.1202629301        2.8809584664
 H        -0.0457324212        0.4352607196        2.5667614119
 H         0.6048077587        1.3712851289        1.2901644287
 H        -0.0872921415       -3.0325854490        1.4020612874
 H        -0.3749445465       -1.7931297501        2.6853926963
 H         0.7609499172       -1.5710361527        1.4981936268
 H         0.1711093189       -1.3782070500       -0.9972941009
 H        -0.8563003761       -2.7721662383       -1.0689163574
 H        -1.4537133028       -1.2227534688       -1.6010180157
 H        -0.4521317698        2.8899967458        2.7579516534
 H        -1.8104108273        2.6925979229        1.7381932980
 H         0.2359352687        3.6425994491        6.8759914258
 H         0.3609958976        1.9755013109        7.5550555756
 H        -0.6100687659        4.1149268436        4.2437216970
 H        -1.8150732648        4.3878463551        5.7048759743
 H        -2.3626139133        4.3257867544        4.1399245492
 H        -2.8365480510        2.2503030723        6.8531555047
 H        -3.7283677707        2.0499176163        5.5172784813
 H        -2.7010166434        0.6760510198        6.0053841537
 H         2.1091408960        1.3903663685        6.0731351084
 H         2.6337312063        2.4868164699        7.3988592701
 H         4.5648077395        3.6433815623        2.8291290845
 H         5.7788757639        4.8140405028        3.2888899834
 H         3.0193944520        5.2093717735        3.3171174535
 H         3.3721746308        6.4678595697        4.2171642297
 H         1.8174728641        5.8422671096        4.7299104395
 H         4.3527429863        5.6731856240        7.0127902723
 H         2.5159001364        5.5541765799        6.9869396235
 H         3.5234359451        4.2760731718        7.5268868774
 H         7.3132103238        3.0969477810        3.7486026654
 H         6.0793642223        1.7821657177        3.7910850943
 H         5.3635693713        0.8046458888       -0.3735567130
 H         6.5482048819        1.2074116282       -1.4896051117
 H         8.8443450951        2.8443466394       -0.4640127069
 H         7.7428560889        3.9490866260        0.6125150989
 H         7.0661984275        2.9372608330       -0.6960352961
 H         8.6589923445        1.3553174925        2.9294423948
 H         9.5716574365        1.3047680564        1.4113558469
 H         9.1646072638        2.7582540449        2.3874144350
 H         6.1336281214       -1.8582847163       -0.5274563283
 H         7.2179537857       -1.3201355172       -1.6984452994
 H         2.9188620437       -0.6446264808       -4.6051607008
 H         3.4492206274       -2.0449967454       -5.5449167409
 H         5.5944860683       -1.0633832323       -4.8500877034
 H         5.7020994875       -2.6406129887       -5.3561713187
 H         6.8127343942       -2.0112882823       -4.0653973543
 H         5.3776690059       -4.6020457830       -3.1455350412
 H         6.6729857119       -3.6253114672       -2.3631457115
 H         5.1441157907       -3.7564500426       -1.4794772976
 H         1.5899655776       -3.3542669232       -5.1334960576
 H         0.9446660819       -2.6105072000       -3.7824636109
 H        -2.8249412537        1.0580731726       -5.5280198752
 H        -1.2322987314        1.6073339627       -4.7320559693
 H        -1.0846003745        1.0377567165       -6.4146786251
 H        -2.7773947815       -1.1835839451       -7.1018705567
 H        -1.9228126450       -2.7384418986       -7.5341487475
 H        -1.1305627350       -1.2163704131       -7.6076669847
 H        -2.4668518900       -3.3396202795       -4.9567226174
 H        -0.8618180776       -3.8958920722       -5.3577080143
 H        -1.3196202761       -3.0578672417       -3.7830854182
 Na       -3.2585980012        0.1998412466       -1.9377102261
