155

 C        -6.4331388570        2.7262983023       -4.2594303853
 C        -5.9893849628        1.5767548988       -3.2785134014
 C        -7.0228072973        0.4214814942       -3.0024567077
 C        -6.2325178140       -0.9015560070       -2.7086288410
 C        -7.0981285301       -2.2555206992       -2.5804476293
 C        -7.7852881302        0.8293401052       -1.6589994675
 C        -7.9101403604        0.2117444003       -4.1954246264
 O        -5.0259960514        1.7730862808       -2.5761988791
 O        -5.0277753861       -0.9831185564       -2.7377734301
 C        -6.3000091433       -3.3789468012       -1.8970254442
 C        -6.7064935992       -3.7021397225       -0.4423663908
 C        -5.8942105845       -4.8622666793        0.2599200472
 C        -4.4825027724       -4.2636862618        0.7965965439
 C        -4.4492340668       -3.3005746506        1.8747307422
 O        -7.6103406901       -3.1433399486        0.1411017928
 O        -3.5161040666       -4.6647707751        0.1875610958
 C        -6.9057574039       -5.3558665845        1.4187055328
 C        -5.6216928246       -6.0595502810       -0.6036001301
 C        -3.0255703780       -2.6668016092        1.8973621530
 C        -2.6307377985       -1.8380257469        0.6660815368
 C        -1.1270050687       -1.3545252698        0.4956952999
 C        -1.1311137554        0.4094003979        0.4972087892
 C        -0.2638512676        1.2352983896        1.4880167370
 C        -0.3010964740       -1.6556558979        1.7226618125
 C        -0.4334600353       -1.8063632723       -0.7783203013
 O        -3.4290838049       -1.3391779995       -0.0905321238
 O        -1.8195659318        1.0207455951       -0.3059273396
 C        -1.0999416174        2.3687586855        2.3523608187
 C        -1.8347651999        1.7011913692        3.5888851017
 C        -1.6483105153        2.3448450883        5.0507930129
 C        -0.2927929591        1.6985222818        5.5396237999
 C         0.3698506623        2.2981035901        6.7634836492
 O        -2.4180182818        0.6284227572        3.5048025419
 O         0.0580609825        0.5747297799        5.2051637128
 C        -1.8601471258        3.9085533713        5.0365245101
 C        -2.7020785533        1.7004794942        6.0692987166
 C         2.0263748024        2.5220565423        6.5183754970
 C         2.2110012063        3.4824528837        5.3469969674
 C         3.3277358670        4.6013222465        5.4227167949
 C         4.6733380152        3.7754988574        5.1273742027
 C         5.1928476717        3.8191480631        3.7498806075
 C         3.0753016048        5.5891139083        4.3024414750
 C         3.4627984970        5.5198924338        6.7153624546
 O         1.5373453040        3.2141746296        4.3667319352
 O         5.2198088400        3.1451092581        6.0058560455
 C         6.3566057534        2.8392560057        3.3624054922
 C         6.3174321088        2.3775239793        1.9168500534
 C         7.5966035321        1.8742844914        1.2442679104
 C         7.2769204112        0.4844254049        0.5846573269
 C         6.2630505953        0.4087616166       -0.5450946368
 O         5.2643858669        2.4243003447        1.3087686527
 O         7.7590585772       -0.5525094722        0.9477614308
 C         7.9924195383        2.8803664504        0.1228547032
 C         8.8662036791        1.6178088453        2.1573716497
 C         6.3053604603       -0.7810298564       -1.4795988015
 C         5.2007422001       -0.8470789120       -2.5904815225
 C         4.9925273705       -2.2946005853       -3.3760984289
 C         3.4095625042       -2.4242070404       -3.3974382496
 C         2.5608081055       -1.6526597809       -4.5302901042
 C         5.6880451253       -2.2417768522       -4.6953649851
 C         5.5553465190       -3.4908317482       -2.5871514860
 O         4.4755012298        0.0995365225       -2.8773170476
 O         2.9356850165       -3.0384092505       -2.4289861494
 C         1.2359423922       -2.2613924746       -4.7535373138
 C         0.4560576725       -1.6686860904       -5.9526838647
 C        -1.1676609988       -1.7927989867       -5.7640655726
 C        -1.6221651912       -0.6519087307       -4.8171892269
 C        -1.7296235285        0.7304275145       -5.4184390537
 O         1.0040111274       -1.1910782538       -6.9032659697
 O        -1.8264847939       -0.8082189793       -3.6176807746
 C        -1.8452284535       -1.6945444884       -7.1589311723
 C        -1.6280369399       -3.1838922606       -5.1103074090
 H        -7.2460797624        2.5274474983       -5.0218629809
 H        -6.7741529413        3.5015794910       -3.6557093219
 H        -5.5436537038        2.9610448826       -4.8191935156
 H        -8.0667228979       -2.0987064569       -2.0624355942
 H        -7.5075731936       -2.5498397396       -3.6262786408
 H        -8.1334855386        1.8294440676       -1.7366294734
 H        -6.9886308601        0.7206218170       -0.9191508780
 H        -8.6391204739        0.1457920664       -1.5436660740
 H        -7.3985335268        0.2278430861       -5.1861548347
 H        -8.4115464299       -0.8191683657       -4.2248500342
 H        -8.7379780087        0.9191330074       -4.3302432480
 H        -6.4134071132       -4.2485637370       -2.5224193479
 H        -5.2238808187       -3.2005213087       -2.1127367245
 H        -5.1500498448       -2.4692063110        1.7498156525
 H        -4.5656707328       -3.8040234442        2.7691892710
 H        -7.3913907097       -4.4295628771        1.8624903479
 H        -6.3715030728       -5.8570353486        2.1540009612
 H        -7.6246482948       -6.0516625671        0.9529401118
 H        -6.4659956314       -6.3636348296       -1.0749757469
 H        -4.9754639884       -5.7540861434       -1.4051464392
 H        -5.1977493247       -6.8374967285       -0.1034243505
 H        -2.3060502059       -3.5458397437        1.9506901069
 H        -2.9427067339       -1.9842022969        2.7651246339
 H         0.4820812760        0.8259473653        2.1724168441
 H         0.4292619318        1.9274213892        0.9024837636
 H        -0.1470205864       -2.7604678997        1.8675919834
 H        -0.5718113405       -1.2244356748        2.6624386893
 H         0.7441972155       -1.2286833486        1.6703458310
 H         0.6503903660       -2.0515282504       -0.7142709366
 H        -0.9144241797       -2.7018834377       -1.2347428007
 H        -0.5379396895       -1.0617672903       -1.5468525194
 H        -0.4507642920        3.2800809248        2.5797174965
 H        -1.8253397926        2.7601043513        1.6868012910
 H         0.0553538634        3.3219559432        6.9613027300
 H         0.1438160349        1.6837873352        7.6779940754
 H        -1.1471057363        4.4118820734        4.4317888225
 H        -1.9232905980        4.2655452676        6.1190128148
 H        -2.8805924584        4.1437509940        4.7515476013
 H        -2.5220394391        2.1372633649        7.0707517224
 H        -3.7236869687        2.0951180881        5.9523319177
 H        -2.7142655475        0.6383575620        6.0070384225
 H         2.5862231286        1.6341810375        6.2030655195
 H         2.4946673823        2.9725696987        7.4116280377
 H         4.3260063234        3.4940657410        3.0428277803
 H         5.4993229737        4.8608659281        3.5780575836
 H         3.1301500854        5.1957737930        3.3029525899
 H         3.8302919533        6.3613905217        4.1980964022
 H         2.2366314712        6.1021126877        4.5336075488
 H         4.4978634762        5.5711398786        6.9866704080
 H         2.9334821688        6.4776340243        6.6080766677
 H         3.0645384596        5.0276247099        7.6352649886
 H         7.3564477846        3.2666199041        3.5992934109
 H         6.2742113793        1.9417227729        3.9730849038
 H         5.3490895548        0.5424500340        0.0137688037
 H         6.2217243500        1.3379054029       -1.0125499190
 H         8.6059880329        2.2981835440       -0.5801346027
 H         8.6292493181        3.6493132761        0.6319254188
 H         7.1007727322        3.2847598093       -0.3300420964
 H         8.6540837247        0.9314074116        3.0813124304
 H         9.7414912126        1.2354042197        1.5845701790
 H         9.0638113265        2.5569490557        2.7378172230
 H         6.2078818069       -1.6000088390       -0.7827130087
 H         7.4008083539       -0.8172537811       -1.8655526081
 H         2.4548411471       -0.5880134477       -4.4402125281
 H         3.1880154913       -1.7919481793       -5.4494730424
 H         5.0574754941       -1.7608775332       -5.3997021618
 H         5.7574940429       -3.2267491993       -5.2260594644
 H         6.6658993016       -1.7924835394       -4.6704283851
 H         5.4580058914       -4.3813718250       -3.2255850219
 H         6.5896013679       -3.3277683976       -2.3717808627
 H         5.1124495797       -3.5274972504       -1.6157547535
 H         1.4078586587       -3.4068272839       -4.8758799479
 H         0.5637561655       -2.2567016714       -3.8384525382
 H        -2.7630031696        1.0229395176       -5.4892755587
 H        -1.0774641048        1.3280909458       -4.8591899643
 H        -1.2539118008        0.6422128833       -6.3708649838
 H        -2.8528205256       -1.3280276864       -6.9357248925
 H        -1.8673583310       -2.7089757608       -7.4483681018
 H        -1.4280815664       -1.0368728167       -7.9831339249
 H        -2.7234849149       -3.3430810052       -5.2126235033
 H        -1.2036860219       -4.0199979857       -5.6613716249
 H        -1.3580804422       -3.3433360920       -4.0877703597
 Na       -3.2374038020        0.1687375903       -1.9457057319
