155

 C        -6.4402001031        2.6346205008       -4.0419208677
 C        -5.8893227544        1.4657385195       -3.2558135167
 C        -6.8732396172        0.2514633573       -2.9842865967
 C        -6.1581432014       -1.1898975542       -2.6864965358
 C        -7.0837005308       -2.3690999367       -2.5303916109
 C        -7.7228508670        0.6547216089       -1.7099076401
 C        -7.8984649895       -0.0346754252       -4.1104016063
 O        -4.8369672428        1.6030107300       -2.6317966080
 O        -4.9605955459       -1.2957166184       -2.7309170691
 C        -6.4475110978       -3.6597387268       -1.9786192738
 C        -6.7308173621       -3.7305292739       -0.4640474485
 C        -5.9854555021       -4.8322088526        0.2606627566
 C        -4.5651536261       -4.0715316626        0.4960682190
 C        -4.4489186394       -3.0768943690        1.6930177939
 O        -7.4070306691       -2.8569182280        0.0952119103
 O        -3.5580229244       -4.4642431643       -0.1037731822
 C        -6.7419413691       -5.4196493989        1.4931563219
 C        -5.6929601492       -5.9916926466       -0.8068014964
 C        -3.0441910327       -2.4358725179        1.9533082270
 C        -2.5947418524       -1.5380908914        0.7926646950
 C        -1.1950407543       -1.0510686174        0.8013148041
 C        -1.1640656146        0.5250966534        0.5957901373
 C        -0.3026068062        1.4353165346        1.4700794018
 C        -0.2578478932       -1.5754527053        1.9267642012
 C        -0.5324895385       -1.5776963348       -0.4946830841
 O        -3.3065674692       -1.4449841798       -0.2245674193
 O        -1.6915381396        1.0213860449       -0.3959268363
 C        -1.1089033819        2.3592344047        2.4572940103
 C        -1.7449358205        1.5299140093        3.5791270547
 C        -1.6522782436        2.0992549263        5.0910421478
 C        -0.3270710316        1.5498635309        5.6301951659
 C         0.3904678651        2.2229662515        6.8381204620
 O        -2.3793774906        0.5204202167        3.3569139484
 O         0.1476491966        0.5864129224        5.0382822559
 C        -1.6624872785        3.6197533928        5.0872995533
 C        -2.7778733343        1.5479949605        5.9098031182
 C         1.7159115462        2.7873756443        6.6409738207
 C         1.9650117245        3.7020955158        5.4645602365
 C         3.3199000808        4.6878611384        5.4017042445
 C         4.4985547586        3.7835540517        5.1908095446
 C         5.0899335655        3.6305632236        3.7518147772
 C         3.0823118482        5.6596428573        4.1793500504
 C         3.4323141226        5.3557796659        6.7791793068
 O         1.2867583036        3.6902626049        4.4538334885
 O         4.9608583228        3.1643907233        6.1361809448
 C         6.4315220671        2.8531978195        3.4980598087
 C         6.3673382038        2.3745270902        2.0452806694
 C         7.5995220195        1.7300845839        1.3187065839
 C         7.1587718260        0.4498959122        0.5942875890
 C         6.1236256519        0.5032440861       -0.5364035892
 O         5.3445244467        2.5324286752        1.4150428899
 O         7.6638897389       -0.6515983689        0.8180695802
 C         8.1202221120        2.7519691345        0.1729332054
 C         8.6959453038        1.4351161115        2.3224328513
 C         6.4113822469       -0.6796924818       -1.5677581851
 C         5.3729023302       -0.6840167750       -2.7112422583
 C         4.9316472684       -2.1053857020       -3.3716953455
 C         3.3316721420       -2.3493324775       -3.4607742739
 C         2.5103604756       -1.6150373806       -4.5355013577
 C         5.5105011040       -2.1068695346       -4.8529569162
 C         5.6804000741       -3.2648060772       -2.5144164475
 O         4.8235713698        0.2883857466       -3.1491243772
 O         2.8933428487       -3.1704359455       -2.7006729298
 C         1.0987653925       -2.1814006552       -4.5662163598
 C         0.3835404116       -1.7742008262       -5.8240817558
 C        -1.2443982240       -1.9013345812       -5.8752795069
 C        -1.5838367932       -0.7107296078       -4.8936141986
 C        -1.6887632204        0.7681550804       -5.2973609167
 O         0.9559037685       -1.2891229744       -6.7684745498
 O        -1.5232430249       -0.9497238685       -3.6909639751
 C        -1.7994981484       -1.6730779387       -7.2959505096
 C        -1.7062013478       -3.2129554078       -5.2453391815
 H        -6.8568697683        2.3752540188       -4.9509581543
 H        -7.3132415948        2.9058512754       -3.3758680598
 H        -5.7113469117        3.3982337391       -4.3289058246
 H        -7.9310332844       -1.9860499266       -1.9319082154
 H        -7.5954169955       -2.5251929786       -3.4365576758
 H        -8.6093557770        1.1148833153       -2.2128932962
 H        -7.2093280432        1.3470953311       -1.0805506972
 H        -8.0907538297       -0.1990585306       -1.1959620309
 H        -7.4658824056       -0.6159267993       -4.9254656460
 H        -8.7644980864       -0.5459688243       -3.8792105374
 H        -8.2261164449        0.8609053050       -4.6514539619
 H        -6.7085406396       -4.5017616765       -2.6664302917
 H        -5.3873577528       -3.5696797879       -2.2300053451
 H        -5.0778348887       -2.1873845795        1.6790736093
 H        -4.5655664794       -3.7416335636        2.6380130523
 H        -7.1279504387       -4.6178923172        2.0980663964
 H        -5.9210376760       -6.0098235924        2.1161922742
 H        -7.5653688582       -6.0608347931        1.0973675500
 H        -6.5671752281       -6.5844279316       -1.2417849910
 H        -5.1790415640       -5.6537934494       -1.6704857167
 H        -4.9935216684       -6.6967485934       -0.2221486848
 H        -2.3856619769       -3.2648494103        1.9912261975
 H        -2.9849597501       -1.8628741571        2.8710405742
 H         0.2611555195        0.8709128252        2.1765932901
 H         0.4420637547        2.0690217362        1.1085768903
 H        -0.2869219066       -2.5933503735        2.0193836506
 H        -0.5244842561       -1.1422267528        2.8677844905
 H         0.7155866935       -1.1613544243        1.8361289588
 H         0.5293515876       -1.4986946040       -0.3750996012
 H        -0.7411700881       -2.5977043475       -0.6881820033
 H        -0.7829944290       -1.0002596632       -1.3915538509
 H        -0.3976489100        3.0707007858        2.7952751309
 H        -1.8545091868        2.9465241414        1.8609795870
 H        -0.1911463644        2.9935343164        7.3133670282
 H         0.6049593467        1.5446569288        7.6149663203
 H        -0.8139685704        4.0369429901        4.4610741286
 H        -1.4186948105        3.9428707128        6.0748223602
 H        -2.6435736965        4.0541706586        4.8550333144
 H        -2.6229400314        1.8599081773        6.9798204412
 H        -3.7992682753        1.9758704524        5.7515208586
 H        -2.8504995069        0.4696959292        5.7364214334
 H         2.4206314341        1.9497644111        6.5623089676
 H         1.9346302019        3.3427959647        7.5367816235
 H         4.3562937951        3.1599278015        3.1417117625
 H         5.3204416623        4.6421175948        3.3707624362
 H         2.7669214880        5.0589307590        3.3182212205
 H         3.9741604692        6.1827177152        3.7739697928
 H         2.3305783714        6.5215739384        4.3932661970
 H         4.4414071078        5.7424738584        6.9405253030
 H         2.6490067169        6.1483872180        6.7676142179
 H         3.3177683587        4.6241182447        7.5418950455
 H         7.3028173293        3.4966657643        3.5657045350
 H         6.5748059227        2.0248502124        4.2277273580
 H         5.1277616621        0.4454737469       -0.0668117459
 H         6.0103316217        1.5851835010       -0.9252639731
 H         8.8546410820        2.2331316711       -0.4785598655
 H         8.7290389728        3.5104518549        0.5870051124
 H         7.1981479414        3.0995364816       -0.2945441741
 H         8.4220330555        0.6601167574        2.9435257513
 H         9.5125635299        1.0274511133        1.7780580661
 H         9.0201576978        2.2786510006        2.9176078434
 H         6.3942942490       -1.5242566175       -0.8426951023
 H         7.3386998991       -0.6103329058       -2.0561411461
 H         2.4526718210       -0.5333020737       -4.2855109147
 H         2.9308288600       -1.5831822008       -5.5407547733
 H         5.2983414581       -1.1613363770       -5.4527357914
 H         5.0811682243       -2.8129997426       -5.5124092021
 H         6.5660330662       -2.3808711875       -4.7680867305
 H         5.4064300510       -4.2012849106       -2.9322616101
 H         6.7358012737       -3.1264366947       -2.5339222238
 H         5.4106559592       -3.2890395937       -1.4467628538
 H         1.1020575676       -3.2521862117       -4.5569027138
 H         0.4398661899       -1.9869768589       -3.7395228688
 H        -2.7440716020        0.8875404065       -5.6487691618
 H        -1.3314034990        1.2187410328       -4.3389372002
 H        -1.0423285305        1.0275398215       -6.1256327243
 H        -2.8525147365       -1.9291200833       -7.3524811969
 H        -1.1540000512       -2.2127182968       -8.0350336465
 H        -1.7348790295       -0.5986273273       -7.4310161311
 H        -2.7749660402       -3.1580431178       -5.1644026066
 H        -1.5510427166       -4.1063439121       -5.8647824487
 H        -1.1520051940       -3.4979156561       -4.3057435710
 Na       -3.1851915796        0.1152774647       -1.9153748442
