155

 C        -6.0984245929        2.5525738926       -2.9025208728
 C        -5.7507801390        1.0508290863       -3.1562020106
 C        -6.7854949580       -0.1743556829       -2.8016415351
 C        -6.0269299576       -1.5386186760       -2.7286379529
 C        -6.7370306525       -2.7972298467       -3.1584931565
 C        -7.4832497714        0.0709150259       -1.4444902076
 C        -7.9235002876        0.0433989177       -3.8298902611
 O        -4.6686487644        0.7831083988       -3.6756932949
 O        -4.8388528210       -1.5862847216       -2.4541642722
 C        -6.3766496563       -3.9840447529       -2.3300746264
 C        -6.4190654646       -3.6603164747       -0.7996534364
 C        -5.6011583694       -4.5272315510        0.2482057157
 C        -4.1831580400       -3.9188729769        0.7783663217
 C        -4.2707005692       -2.9815129013        2.0152983920
 O        -7.0524737481       -2.6953783853       -0.4037992239
 O        -3.1484086988       -4.0527638062        0.1778770792
 C        -6.6769870504       -4.8856482862        1.3464356187
 C        -5.0930724320       -5.7494493908       -0.5453682607
 C        -3.0230903581       -2.2230525710        2.3680767885
 C        -2.5930060318       -1.4165793358        1.1266015808
 C        -1.0260011268       -0.9286768693        0.9138694965
 C        -1.0068318785        0.7024504999        0.6032302052
 C        -0.2949160012        1.7656621977        1.4376310171
 C        -0.1292770298       -1.2538065192        2.0909575807
 C        -0.4827226660       -1.7235755318       -0.4654215097
 O        -3.4347702623       -1.0515639184        0.3546890624
 O        -1.6221169452        1.0139221689       -0.4144220799
 C        -1.1721295993        2.5892223836        2.5095206346
 C        -1.9923298414        1.5370937172        3.3770909041
 C        -1.8034774597        1.5366245746        4.9776292924
 C        -0.3034583421        1.8135951696        5.2221290017
 C         0.0891276878        2.2087779579        6.6927063883
 O        -2.8238686726        0.8734466970        2.7778036485
 O         0.6179828541        1.5857438874        4.4415184848
 C        -2.7718011289        2.6228519355        5.5196964634
 C        -2.2331564167        0.0957482366        5.3545277951
 C         1.5199735755        3.0248697139        6.8752694931
 C         1.7144734958        4.1197106042        5.7404192761
 C         3.1049602595        4.7507730882        5.5221760271
 C         4.0749567147        3.6383544624        4.9230155397
 C         4.3976106567        3.5597916858        3.4995601659
 C         3.0315280421        6.0523736663        4.6454497175
 C         3.5242694498        5.3128776624        7.0114910386
 O         0.7602871404        4.4723810062        5.1180969393
 O         4.4123713733        2.8181084796        5.7730092052
 C         5.1431269963        2.3092268898        3.1718307157
 C         5.7977276789        2.2141710995        1.8120776627
 C         7.1616449836        1.4415435308        1.6729844457
 C         6.9909758989        0.2990558715        0.5611122144
 C         6.6885965432        0.5725711879       -0.9171680844
 O         5.3235811991        2.7986962436        0.8600206887
 O         6.9401377128       -0.8158531718        0.9759842781
 C         8.1541067168        2.4671168414        1.1468427463
 C         7.6597263070        0.7563151404        2.9803289896
 C         6.3179917126       -0.7399894603       -1.6341003819
 C         5.4125852149       -0.5877767623       -2.7975461185
 C         5.1433318454       -1.7876998279       -3.7238504596
 C         3.5570122632       -2.0970330048       -3.6029033387
 C         2.7148130736       -1.2693707347       -4.5488804697
 C         5.6260502573       -1.2339959339       -5.1718335044
 C         5.8779831162       -3.0849089185       -3.2493301643
 O         4.8964950917        0.5017674572       -2.9847607044
 O         3.1215276745       -2.9929088677       -2.8437743771
 C         1.2875263846       -1.6202913006       -4.3950627085
 C         0.6420820179       -1.5446031597       -5.7402592114
 C        -0.8985079922       -1.8151707198       -5.9300442833
 C        -1.6074145370       -0.9209781886       -4.8534090585
 C        -1.6746477164        0.5710852636       -5.1343374636
 O         1.2948936587       -1.2427183181       -6.7316793662
 O        -1.9302762293       -1.4150425737       -3.7480737197
 C        -1.2624825365       -1.4471547750       -7.3671184139
 C        -1.2081991480       -3.2323754273       -5.6166009408
 H        -5.1495249400        3.1511208493       -3.0801041182
 H        -6.7818249002        2.9064723995       -3.6368689003
 H        -6.5922008337        2.7772358367       -1.9595280089
 H        -7.8766910178       -2.5366965952       -3.1022056298
 H        -6.4551006783       -3.1315763100       -4.1878815899
 H        -8.0954873398        0.9979335977       -1.6252165722
 H        -6.8134496449        0.3394709636       -0.6287179583
 H        -8.0723776624       -0.7902786307       -1.1578852531
 H        -7.8171442264       -0.3518628923       -4.8804763347
 H        -8.9028045153       -0.3766289353       -3.4368165047
 H        -8.1904744193        1.1055903170       -3.9173707936
 H        -7.1741003351       -4.7254539569       -2.5832534111
 H        -5.4131263119       -4.3490670489       -2.7098532245
 H        -5.0511894127       -2.2007393976        1.8625912221
 H        -4.7240612778       -3.4062804738        2.9753903692
 H        -6.6693941260       -3.9047351037        1.8898224600
 H        -6.3421569804       -5.7784660603        1.8151955022
 H        -7.6141396850       -5.0837915371        0.8422176623
 H        -5.8463137207       -6.2055069861       -1.0346935668
 H        -4.2333816536       -5.5375290014       -1.1446322423
 H        -4.7626421856       -6.4072580278        0.1116981162
 H        -2.3149736574       -2.8487885347        2.8762683886
 H        -3.2058180382       -1.4771226091        3.2073359778
 H         0.5009218785        1.2439946709        1.9510499765
 H         0.0482681068        2.5555257907        0.7596170171
 H        -0.0787920661       -2.3153714912        2.3996845286
 H        -0.5341387345       -0.6220262051        2.8978120266
 H         0.9706943382       -1.1209874415        1.7656982943
 H        -1.3654002447       -2.2479912551       -0.9555902729
 H        -0.0844704526       -0.9798241808       -1.1774027851
 H         0.2642393553       -2.4640875616       -0.2102857983
 H        -0.4186618682        3.1446472129        3.0854396174
 H        -1.8399870109        3.2449288440        1.9879441427
 H        -0.7570541251        2.7916370497        7.1111647586
 H         0.1494794206        1.2992354642        7.3154094802
 H        -2.7833194998        3.5253722041        4.9202350695
 H        -2.5470318512        2.8607235087        6.5678079538
 H        -3.7902657640        2.1786411118        5.4477356035
 H        -2.2073530833       -0.1480837511        6.4462081611
 H        -3.1683337107        0.0266663316        4.7585915552
 H        -1.4722550727       -0.5594752251        5.0057964871
 H         2.3329130981        2.2559677501        6.9008668761
 H         1.5908178738        3.5648282278        7.8011842076
 H         3.3437851273        3.6570833406        3.0297832269
 H         4.7941434825        4.5605817007        3.1325416604
 H         2.8379837276        5.7482034428        3.6451135400
 H         3.9826918403        6.5931526532        4.7641613482
 H         2.1851160346        6.6398936048        4.9275583770
 H         2.6877333433        5.3010710961        7.6653821050
 H         4.4215598062        4.6971286306        7.3177097838
 H         3.9324869598        6.2446134999        6.7609270986
 H         5.9002433418        2.0602486873        3.8471611881
 H         4.4535409095        1.4197944473        3.2350911842
 H         5.8268827852        1.1870297708       -1.0700302709
 H         7.6711080980        0.9150676015       -1.4243256309
 H         9.0656416162        1.8520298691        0.8590171306
 H         8.2649381741        3.3032588381        1.7454102409
 H         7.8483829364        2.8583291403        0.1593586908
 H         6.6661080508        0.2791523146        3.3647137938
 H         8.4136491152       -0.0418120292        2.7479508390
 H         8.0906200012        1.4687409259        3.7612568663
 H         5.7852804700       -1.4468656096       -0.8690728203
 H         7.1995712270       -1.2849221904       -1.9603036751
 H         2.8479567476       -0.2146732328       -4.3750116357
 H         3.0051029254       -1.4947613291       -5.5515513277
 H         5.6517575687       -0.1350306505       -5.1945604250
 H         5.0214592668       -1.7030390674       -5.9278988829
 H         6.6791635667       -1.4434295803       -5.3520260674
 H         5.5971734503       -3.9409968078       -3.9365665019
 H         6.9441546042       -3.1045453837       -3.2611946627
 H         5.4579221808       -3.3587543018       -2.2531949611
 H         1.4663163172       -2.7297155838       -3.9867085748
 H         0.9852024609       -1.0499554816       -3.4797574779
 H        -2.7087968060        0.7153543455       -5.5672999880
 H        -1.5710685881        1.1407338933       -4.2580151965
 H        -1.0081802623        0.7145668899       -5.8944210367
 H        -0.3796149196       -1.2069908491       -7.9052856369
 H        -1.8193065758       -0.5541502094       -7.3865025472
 H        -1.8877975834       -2.2572327165       -7.8778830995
 H        -2.2455042350       -3.4855148234       -5.5969456372
 H        -0.7027499982       -3.9037073955       -6.3239709742
 H        -0.8729443513       -3.4110138749       -4.5854683128
 Na       -3.0903347474       -0.3176973873       -1.8150812071
