155

 C        -6.1040025988        2.5311841916       -2.5975980860
 C        -5.6932013387        1.1010120969       -3.0856119223
 C        -6.7443203499       -0.1181223358       -2.7788886004
 C        -6.0304060496       -1.4332481123       -2.7055395483
 C        -6.7639453356       -2.7094078829       -3.1105923332
 C        -7.2673371934        0.1803875329       -1.3659111872
 C        -7.8316118925       -0.2883842344       -3.8546131823
 O        -4.6221950076        0.8365009793       -3.5555785110
 O        -4.8965985847       -1.5100342624       -2.3635665009
 C        -6.0309671703       -3.9254855650       -2.3264598611
 C        -6.1083786348       -3.6081517920       -0.8318854813
 C        -5.5091406179       -4.6180113025        0.2155381999
 C        -4.1562383639       -3.9098432587        0.8676896718
 C        -4.3586403011       -2.9885165222        2.0700370622
 O        -6.7352396892       -2.6619972764       -0.3912302291
 O        -3.0645633118       -4.0523725442        0.3295022064
 C        -6.4295294881       -4.8137222069        1.3943633699
 C        -5.0743611459       -6.0409400070       -0.3021864684
 C        -3.0374695942       -2.2115936455        2.2791114931
 C        -2.6761337240       -1.1950505908        1.1572141705
 C        -1.1595585522       -0.8553983538        0.8619658623
 C        -1.2353558094        0.5871182061        0.4265349380
 C        -0.4199462221        1.7016318206        1.3185951556
 C        -0.1992683061       -1.1564275473        2.1437943012
 C        -0.7146339132       -1.7281546855       -0.2829288531
 O        -3.4570423101       -0.8180777375        0.2723543144
 O        -1.7626212571        0.9443428844       -0.6197718016
 C        -1.4801560301        2.4359069144        2.2123365206
 C        -2.0481970651        1.4489872156        3.2181752195
 C        -1.6850773972        1.4355220919        4.7721281606
 C        -0.2166646263        1.8818150177        5.1897376865
 C         0.0100163233        2.3270383460        6.5949757865
 O        -2.9670157603        0.7108197076        2.8370620126
 O         0.6330575898        1.6635631606        4.3286271628
 C        -2.7478940671        2.3555748933        5.4881056166
 C        -1.8678549961       -0.0222990826        5.3843087755
 C         1.2983597326        3.0502363618        6.7306417284
 C         1.4737863020        4.2517500964        5.7941338691
 C         2.9197374607        4.8222806319        5.6361232031
 C         3.8154869884        3.6001130951        5.0109274147
 C         4.0913482636        3.5188972498        3.3938985541
 C         2.8715732306        6.0323578669        4.7129636198
 C         3.6050431184        5.0633650391        7.0426994351
 O         0.5675809444        4.6624379812        5.0658858707
 O         4.3637397176        2.8172331209        5.7258927940
 C         4.8336641838        2.1977354886        3.0646823676
 C         5.7489339556        2.1624300315        1.7683646208
 C         7.0910923785        1.3540895756        1.7686919245
 C         6.8602051519        0.1458658733        0.7993173620
 C         6.7708017747        0.5234018745       -0.6906907814
 O         5.3584922432        2.7214942505        0.7646319665
 O         6.6261284236       -0.9652237690        1.2666622905
 C         8.2201812864        2.3270099492        1.2234212288
 C         7.6045657259        0.8377747184        3.0929649893
 C         6.5640480021       -0.7623437545       -1.6109955780
 C         5.5781735683       -0.5351850578       -2.7513959852
 C         5.3266972795       -1.7289549750       -3.7561995186
 C         3.7259898524       -1.9364146472       -3.6599021551
 C         2.7642535720       -0.9787566295       -4.5075880849
 C         5.6966729584       -1.2913709498       -5.2038588738
 C         6.1226003299       -3.0195745441       -3.4883706090
 O         4.9228888757        0.4971293380       -2.8676466868
 O         3.3160314840       -2.8703503251       -3.0133205770
 C         1.1841488012       -1.5420895995       -4.5529212897
 C         0.6087351067       -1.3999371632       -5.9280205938
 C        -0.8810619818       -1.8059009587       -5.9094948862
 C        -1.5156085603       -0.8955075416       -4.8278189070
 C        -1.6030534542        0.6914181087       -4.9551285111
 O         1.2108518893       -1.0293755434       -6.9084390182
 O        -1.9307362898       -1.3897091551       -3.8310512919
 C        -1.5431569704       -1.6218214702       -7.3024387758
 C        -1.0706634205       -3.3324571974       -5.5309462679
 H        -5.2524719395        3.0862026833       -2.4743999118
 H        -6.7597786645        3.1403500378       -3.2817455104
 H        -6.7267523142        2.4245683822       -1.7008473431
 H        -7.7875618279       -2.6700156995       -2.9765045086
 H        -6.4936852569       -2.8148927102       -4.1496901723
 H        -7.9981738647        0.9708314692       -1.4168119149
 H        -6.4350388184        0.5758088814       -0.7870957589
 H        -7.6902218541       -0.7110793994       -0.8797437251
 H        -7.4671544456       -0.6622878372       -4.8176934315
 H        -8.6835843979       -0.8894811470       -3.6186033204
 H        -8.2742537743        0.7206379466       -4.0927295806
 H        -6.4716597165       -4.8974852413       -2.5781773881
 H        -4.9338427554       -3.8763329985       -2.5422935981
 H        -5.1406411522       -2.2410466548        1.9206266187
 H        -4.7734477016       -3.4931740038        2.9089722790
 H        -6.8540468117       -3.8659380260        1.5382100977
 H        -5.7633117224       -5.2804902323        2.1831446267
 H        -7.0695960241       -5.6718562017        1.1028609367
 H        -5.8685394123       -6.4949839987       -0.9891475055
 H        -4.0074612164       -6.0360123229       -0.6918678407
 H        -5.1359744138       -6.8051623246        0.5698652867
 H        -2.2246667801       -2.9613830119        2.3515084567
 H        -2.8562181018       -1.6775460207        3.1565482081
 H         0.2748881313        1.1440165235        1.9266408408
 H         0.0416920006        2.4662545043        0.7197210198
 H        -0.0963512009       -2.2250047143        2.1225819891
 H        -0.5365210565       -0.8348606230        3.1059405585
 H         0.7407070428       -0.8000895996        1.8705742340
 H        -1.4476425792       -2.4385740084       -0.5880694073
 H        -0.4389294640       -1.0860424311       -1.1190052963
 H         0.2099245880       -2.2578311626        0.0613319357
 H        -0.9921386874        3.2635310528        2.6882079205
 H        -2.4131739439        2.8161298467        1.6298870396
 H        -0.8268552946        2.8718095153        6.9880747565
 H         0.1203602118        1.4220723713        7.1872922685
 H        -2.4050504506        3.4036917959        5.6150237270
 H        -3.1647204532        1.8586247914        6.3486878577
 H        -3.5768058679        2.5180565634        4.8252021801
 H        -1.5728473658        0.0381701846        6.4426427538
 H        -2.9399809304       -0.2078133267        5.2220621617
 H        -1.1957248156       -0.8325415985        5.0300108209
 H         2.0591054256        2.3291592442        6.5273976992
 H         1.4818844236        3.3709529271        7.7831552277
 H         3.1874240989        3.5859814664        2.8919975794
 H         4.4697319855        4.4748094639        3.1572439615
 H         2.3363366929        5.7424949057        3.7680693354
 H         3.9013886062        6.2818042262        4.4791288448
 H         2.4265976209        6.8798411512        5.3456203756
 H         2.7715952910        4.8027745557        7.6850727432
 H         4.4023014981        4.3937045322        7.1173242239
 H         3.9342152747        6.0923500689        7.1430000590
 H         5.4502326856        1.7746840355        3.9232068544
 H         4.1241518007        1.4178940389        2.8600140684
 H         5.8553148782        1.2055240634       -0.6222318633
 H         7.6857003061        0.9292264446       -0.9841928078
 H         9.1472929116        1.9082955238        1.0415703479
 H         8.1202536279        3.2181220659        1.8798553855
 H         7.9903282969        2.6887880001        0.2484848070
 H         7.0294908286        0.0862455394        3.4582617145
 H         8.6100470151        0.5392592102        2.8591306975
 H         7.6205380165        1.6268984228        3.8228410372
 H         6.2986556276       -1.6022734223       -1.0454149663
 H         7.6081104187       -1.0491136499       -1.9580278612
 H         2.9412827239        0.0871539677       -4.2469983229
 H         3.0807464516       -1.1552011763       -5.5596611975
 H         5.1248022314       -0.3635041500       -5.4736474042
 H         5.4845699174       -2.1018541228       -5.9146642454
 H         6.7300122677       -0.9263356235       -5.1980915591
 H         6.1199003396       -3.6690907395       -4.2775600735
 H         7.1556968338       -2.7774920916       -3.3138056949
 H         5.7526951485       -3.4671297749       -2.5943177619
 H         1.2882719485       -2.4758283901       -4.2412683431
 H         0.6332023778       -1.0146532612       -3.8463323225
 H        -2.4717324724        1.0419265608       -4.3923428379
 H        -0.7419611443        1.0301671761       -4.3151120492
 H        -1.4570980326        0.9453883074       -6.0310023162
 H        -1.3854527206       -2.5731822688       -7.8684874512
 H        -1.1066045423       -0.8051717988       -7.9795490054
 H        -2.5931694336       -1.5219803144       -7.1310806621
 H        -2.0475565412       -3.6715368418       -5.8744607176
 H        -0.4093040641       -3.8559187515       -6.1826832538
 H        -1.1080402129       -3.5816553373       -4.4714787027
 Na       -2.9092905317       -0.2948773599       -2.0401910757
