155

 C        -6.2763006725        2.5383834396       -2.5704751089
 C        -5.6274277003        1.1818379043       -2.7529822990
 C        -6.5492640863       -0.1198796991       -2.5865710488
 C        -5.7757409600       -1.4809614028       -2.6482419155
 C        -6.5441972206       -2.8109536285       -2.9118623635
 C        -7.3528121189       -0.0283492471       -1.2669496985
 C        -7.4347266562       -0.1040227664       -3.8691072639
 O        -4.4901364384        1.0311075494       -3.1777237026
 O        -4.6209207316       -1.5302876819       -2.3591264409
 C        -5.9675604355       -3.9963013302       -2.1455345138
 C        -6.0329977176       -3.8125139253       -0.5898421210
 C        -5.4287506975       -4.9453703067        0.3828230786
 C        -4.0597492920       -4.1508329185        0.9204673928
 C        -4.3213449383       -3.0491846982        1.9143201261
 O        -6.4269192157       -2.7703223278       -0.0920103036
 O        -2.9752147612       -4.4175484965        0.4577171136
 C        -6.4864881458       -5.3166337603        1.6157910255
 C        -5.0167151746       -6.3175548700       -0.1766642457
 C        -3.0110189650       -2.2015142242        2.0057873720
 C        -2.7075118548       -1.2458766684        0.8688715955
 C        -1.2221271904       -0.8363725624        0.7003977306
 C        -1.1142647982        0.7133237063        0.2754269262
 C        -0.6175339773        1.9023821416        1.1323724845
 C        -0.2153743514       -1.0281905715        1.8543462694
 C        -0.7207475564       -1.7312860253       -0.6268542875
 O        -3.5902912894       -0.7318866381        0.1401898581
 O        -1.2977436290        0.9781341211       -0.9006592359
 C        -1.7232082953        2.3677419225        2.1984791646
 C        -2.2776547285        1.3154180890        3.2530042875
 C        -1.9156663122        1.2843873790        4.7525830675
 C        -0.4622626758        1.8319050072        5.0289514187
 C        -0.1383357712        2.3935233382        6.4897530960
 O        -3.1611507268        0.6056588240        2.7777384886
 O         0.3273277590        1.9462360077        4.1221128971
 C        -3.0591651033        2.0784166220        5.4527608115
 C        -1.9150672369       -0.1555849968        5.3553611795
 C         1.3302115576        2.9748886750        6.5663835092
 C         1.5552002717        4.2675530570        5.6000085874
 C         2.9689841847        4.7297737460        5.4118998980
 C         3.7071443912        3.4512889757        4.9189150278
 C         3.7693476164        3.2950966462        3.4428508257
 C         2.9555900746        5.8700924903        4.3580154289
 C         3.6910879565        5.2051255817        6.8471983332
 O         0.5810145352        4.8779572172        5.1946240270
 O         4.0813387572        2.6225974966        5.7357754533
 C         4.3124081394        1.9844615133        2.9488131805
 C         5.4674455662        2.2456980865        1.9124751982
 C         6.8226323409        1.3370802336        1.9499073443
 C         6.5532055663        0.1794134347        0.9489345146
 C         6.7793942664        0.4183568608       -0.5316681100
 O         5.2969208885        2.9952248704        0.9901490888
 O         6.1463787551       -0.8627295646        1.3778257238
 C         7.9074847421        2.2708603609        1.4634190486
 C         7.1675705486        0.7134530409        3.3010687010
 C         6.4184223001       -0.9012080228       -1.3218296894
 C         5.6753984772       -0.5034147346       -2.6076864677
 C         5.4881194817       -1.4805517459       -3.8628396658
 C         3.9812888128       -1.8183073089       -4.0389768402
 C         3.2276493479       -0.9059348588       -4.9513050978
 C         6.2409236252       -0.6979832071       -5.0392931972
 C         6.2300718848       -2.9046370672       -3.6208426287
 O         5.0923856130        0.5785764816       -2.7163266562
 O         3.5101660340       -2.8609901463       -3.5105715270
 C         1.7061718919       -1.5005770136       -4.7624865117
 C         0.7182703558       -1.2433864612       -5.9111541173
 C        -0.7949712055       -1.8107048305       -5.8011513370
 C        -1.4641281877       -0.8733845748       -4.6669083160
 C        -1.5020733747        0.7490061086       -4.8185125185
 O         1.1019714928       -0.6664982622       -6.9353718555
 O        -1.9730286911       -1.3989195883       -3.7044573033
 C        -1.3594796107       -1.6651586815       -7.2212400944
 C        -0.8575984535       -3.3161828994       -5.3933013205
 H        -5.5611036454        3.2761726544       -2.7624913945
 H        -7.1023258722        2.7693894817       -3.2800774406
 H        -6.7465194169        2.5949397964       -1.5939253800
 H        -7.5907019770       -2.6046171623       -2.7042428233
 H        -6.3803159871       -3.0539958723       -3.9847782042
 H        -7.7051135976        0.9927464787       -1.0176740693
 H        -6.7275315985       -0.3721811624       -0.4567824063
 H        -8.3069968863       -0.5497342525       -1.3615982570
 H        -6.8730262798        0.2273260300       -4.8338739899
 H        -7.7734858683       -1.1255152602       -4.0812823833
 H        -8.3006738642        0.6373716253       -3.7710108887
 H        -6.4978633251       -4.9779183454       -2.3089627856
 H        -4.8844034039       -4.0448254327       -2.4842616532
 H        -5.2782527064       -2.4935303654        1.8448602932
 H        -4.4035828754       -3.4488150482        2.9572960778
 H        -6.5289249922       -4.4431370635        2.2362518124
 H        -5.9067871030       -6.1909183255        2.0893045764
 H        -7.3721385163       -5.6797452586        1.0917473881
 H        -5.8391487937       -6.9813227994       -0.4162295067
 H        -4.5641101984       -6.0720792255       -1.1959267328
 H        -4.3098479880       -6.6557702335        0.4974107683
 H        -2.2021241591       -2.9344984649        2.2084452208
 H        -2.9836748088       -1.6013752973        2.8593474439
 H         0.3312326138        1.6806397119        1.5748271440
 H        -0.4734591322        2.6564034129        0.4115387528
 H        -0.0262361459       -2.0565674901        1.9564819033
 H        -0.7665773745       -0.7102698052        2.7095355869
 H         0.5680157322       -0.3225228225        1.7739555014
 H        -0.3270571652       -2.6858145775       -0.2636493263
 H        -1.5407338157       -1.8905649665       -1.3252967692
 H         0.0821759534       -1.0939848800       -1.1119806059
 H        -1.4227231603        3.2207551460        2.7096310495
 H        -2.7463665531        2.7137331044        1.8171228663
 H        -0.7758029839        3.2643991718        6.6025714442
 H        -0.3580285131        1.7093068698        7.2888248137
 H        -3.6014526953        2.6872902589        4.6746957139
 H        -2.7363216450        2.6822078870        6.2489763223
 H        -3.7753854091        1.5103521580        5.9577269844
 H        -2.1480331334        0.0846674574        6.4719137794
 H        -2.7614765219       -0.8090564907        4.9643828753
 H        -0.9457751024       -0.5663700289        5.2269158223
 H         1.9621981733        2.1959049459        6.2661656414
 H         1.6113761323        3.2225625482        7.6196866064
 H         2.7682298497        3.5128135212        3.1549550272
 H         4.3221195900        4.1541085635        3.0516965296
 H         2.8406012259        5.5567646747        3.3848378680
 H         3.9661041353        6.2206700810        4.4156812572
 H         2.3266580374        6.6803039769        4.7785946998
 H         3.5713126983        6.2871028102        6.8391803718
 H         3.2194547486        4.6195412062        7.6243629678
 H         4.7288075608        5.0731874935        6.8125122330
 H         4.8670439423        1.3811913452        3.7717785040
 H         3.6189068433        1.2561671769        2.5333614479
 H         5.9557481263        1.1792923273       -0.9017362413
 H         7.7983249491        0.7609401681       -0.5677566610
 H         8.8966286120        1.8732922826        1.2223268516
 H         8.0618338199        3.0848642764        2.1956654469
 H         7.5619893139        2.6656249329        0.5188037129
 H         6.3924113125        0.0455944388        3.7235479812
 H         8.0377693301        0.1044374286        2.9956980434
 H         7.3489302416        1.5156074559        4.0988363525
 H         5.8769868500       -1.6125281139       -0.7468005323
 H         7.3046365823       -1.5811112683       -1.5849432232
 H         3.3448994613        0.1291251608       -4.5702552771
 H         3.5574694814       -0.8814703820       -5.9963587733
 H         5.9860663923        0.4445113312       -5.0192153069
 H         5.8569546922       -1.0195406721       -5.9813052417
 H         7.2754589763       -1.0082922118       -4.9014805944
 H         5.9991668919       -3.5323373440       -4.4333007548
 H         7.2818446559       -2.8004522529       -3.5619240361
 H         5.9226359210       -3.4145615160       -2.6831387142
 H         1.7171416807       -2.4947010043       -4.4997122945
 H         1.4093308447       -0.9209128366       -3.8948348603
 H        -1.0137660687        0.9876754438       -3.8408899904
 H        -0.9614170456        1.1405924029       -5.6489548026
 H        -2.5101602198        0.9488297969       -4.9877917519
 H        -2.4362775044       -1.7347784143       -7.3060485751
 H        -0.8503326725       -2.3543242079       -7.9455087624
 H        -1.1041467261       -0.6309520882       -7.6323356531
 H        -1.8390954371       -3.6320790996       -5.0556138868
 H        -0.6073487708       -3.8718196174       -6.2719777026
 H        -0.1196033674       -3.4818040357       -4.5770832842
 Na       -3.0126417655        0.0940932173       -1.9367093136
