155

 C        -7.0015029287        2.4392767744       -2.5607198765
 C        -6.1873371774        1.1020373405       -2.4101903329
 C        -6.9306191908       -0.3079721303       -2.4741024909
 C        -5.9022787732       -1.5632575999       -2.5864850600
 C        -6.5524129474       -2.9401637634       -2.5581882921
 C        -7.7189960272       -0.4067826752       -1.1949673910
 C        -8.0480384432       -0.4387255654       -3.5273338764
 O        -4.9597055841        1.2185545484       -2.2982841573
 O        -4.7071874852       -1.5247810673       -2.8435526685
 C        -5.7702624542       -4.0116589463       -1.9605092714
 C        -6.0344242865       -4.0557852197       -0.4460488198
 C        -5.2625541305       -5.1770581733        0.4590177153
 C        -3.8710838633       -4.5494025361        0.7071527274
 C        -3.9371702809       -3.3920885257        1.6851755663
 O        -6.6574896434       -3.2276512543        0.1717928604
 O        -2.8736055615       -4.9925415543        0.2055010460
 C        -5.9481312742       -5.5687493686        1.7661731433
 C        -5.1899900851       -6.4322222320       -0.4773516091
 C        -2.5512384073       -2.7134188401        1.8899410532
 C        -2.1621900609       -1.9444761008        0.6188026411
 C        -0.8218302815       -0.9375983825        0.7521132361
 C        -1.2554379012        0.6786593893        0.5901613958
 C        -0.7344679077        1.9048097801        1.4324318501
 C        -0.0984399226       -0.9091377092        2.1360139575
 C         0.1529752737       -1.3067533111       -0.3422134371
 O        -2.6487189244       -2.0835690987       -0.5018604306
 O        -1.8516018172        0.9896339321       -0.4638519032
 C        -1.7983176544        2.5274816613        2.4061738769
 C        -2.3182687691        1.4007598369        3.3059524122
 C        -2.3443253417        1.6745596362        4.8797253191
 C        -0.9013321835        2.0716607863        5.2754418815
 C        -0.6458062788        3.1715182554        6.3228021181
 O        -2.7334012036        0.3262819932        2.8753372693
 O         0.0270415776        1.4807976946        4.7219258471
 C        -3.4533983209        2.8397099484        5.0597882312
 C        -2.7101034542        0.3151808715        5.5619192127
 C         0.8834549059        3.4327691158        6.4774156086
 C         1.3967449814        4.3927515603        5.3141638467
 C         2.8474777134        4.7823636021        5.2306999911
 C         3.4787847620        3.4407636983        4.5282409518
 C         2.7410770905        2.9093864673        3.2755397495
 C         3.1141697976        5.9942667439        4.4234723063
 C         3.5626950762        4.8738735587        6.6360150293
 O         0.6240359897        4.6978369664        4.4161214150
 O         4.3653256044        2.8366948650        5.0779263957
 C         3.5644922280        1.6800971904        2.6207444235
 C         4.9818904297        2.1097964839        2.4068958459
 C         6.1326922950        1.0707827305        2.2326259228
 C         5.7210956140        0.0408834870        1.0633051297
 C         5.8679282800        0.4055758899       -0.3811116814
 O         5.2493288755        3.2773765385        2.3875804422
 O         5.0750255905       -0.9235080827        1.3958415291
 C         7.4963468099        1.7884920227        1.8641058233
 C         6.3155057364        0.2832757901        3.5631898802
 C         5.7775171062       -0.7650185049       -1.3857859337
 C         5.6346097462       -0.1872891588       -2.8361513982
 C         6.1450676073       -1.1049820100       -3.9913709228
 C         4.8968388565       -1.9489275881       -4.3376050936
 C         3.8592660234       -1.0403610245       -5.0395030894
 C         6.6795732501       -0.2125767293       -5.1571284940
 C         7.3272747702       -1.9305407769       -3.5947652889
 O         5.1240094045        0.9180292016       -3.0991762707
 O         4.8787611782       -3.1546993007       -4.1132468248
 C         2.4499920400       -1.8408598981       -5.2569621821
 C         1.3765439814       -0.9080876729       -5.9598510033
 C        -0.1843911830       -1.2981443788       -5.9388332563
 C        -0.8639800888       -0.4286571289       -4.9183584149
 C        -1.2493662176        1.0689558576       -5.1277118712
 O         1.5848951800        0.1648527410       -6.4330676279
 O        -1.1088942861       -0.8568977552       -3.7940810925
 C        -0.8686220669       -1.2206872867       -7.3858390485
 C        -0.3793043692       -2.8201116098       -5.5223576302
 H        -7.4351377265        2.5381291689       -3.4887743976
 H        -7.8356518978        2.4905080475       -1.8045349967
 H        -6.3061203153        3.2905330697       -2.5490467034
 H        -7.4775712263       -2.8318239787       -2.0825559685
 H        -6.8494673658       -3.1512382982       -3.6060299760
 H        -8.2332390658        0.4920913826       -0.9580166852
 H        -7.2731268356       -0.7395960666       -0.2356786738
 H        -8.5275671183       -1.1722176457       -1.3610024413
 H        -7.4923081324       -0.4110908868       -4.5100732089
 H        -8.4675656980       -1.4120734322       -3.3183724547
 H        -8.7703841080        0.4538998591       -3.4086098881
 H        -5.8458501474       -5.0550786788       -2.2950767248
 H        -4.6543871199       -3.7871994103       -2.1126890570
 H        -4.6019207290       -2.6990646205        1.1942316997
 H        -4.3432615548       -3.7363464060        2.5629606235
 H        -6.2673576387       -4.6202403942        2.1202187148
 H        -5.1399856502       -6.1373330552        2.3601806016
 H        -6.7935844902       -6.2379559188        1.4412111723
 H        -6.2269460451       -6.6743183715       -0.9548591356
 H        -4.2686833573       -6.4348786465       -1.1221917309
 H        -5.1663737284       -7.3691232709        0.1748623252
 H        -1.8273587323       -3.4684090260        2.0298072767
 H        -2.5653889187       -2.0202823141        2.7727443409
 H         0.0196987177        1.6241858194        2.1323877021
 H        -0.3235117841        2.6217204940        0.7425662560
 H         0.5430192974       -1.7257289659        2.4429347905
 H        -0.8694337294       -0.7491900339        2.8779741710
 H         0.5434982283       -0.0534735090        2.1383970906
 H         0.5670625009       -2.2494690166       -0.0263197831
 H        -0.4088695091       -1.4925116327       -1.2530830797
 H         0.9907759152       -0.5850604636       -0.4828293237
 H        -1.3201797971        3.2718113608        3.0916428258
 H        -2.5728794115        2.9836336353        1.7954854009
 H        -1.1030629834        3.9959259581        5.7987406573
 H        -1.1600843907        3.0528910230        7.2603452621
 H        -3.6080362517        3.5647806773        4.2637878893
 H        -3.2194454399        3.4424539547        5.9488347137
 H        -4.3992506605        2.3824814594        5.1654484722
 H        -2.6080274894        0.5240012546        6.6796533147
 H        -3.7371819574        0.0977188086        5.1525152093
 H        -1.9488715785       -0.3927280928        5.3153676180
 H         1.3135255577        2.4047460702        6.4426460559
 H         1.1710912488        3.8947062976        7.3864580642
 H         1.8569871910        2.4539230000        3.6523055748
 H         2.6894137416        3.6936538739        2.6066130888
 H         2.3811700252        6.1755212947        3.6530893962
 H         4.0848289750        5.8217646192        4.0706927865
 H         3.1561067131        6.9260674213        5.0572787300
 H         3.4779029323        3.9367999779        7.2712810402
 H         4.6346221016        4.9088986494        6.5514811973
 H         3.1464148593        5.7338926565        7.2183522185
 H         3.6482238459        0.9114721848        3.3736335663
 H         3.0739504661        1.2995895748        1.6562850862
 H         5.0859748924        1.1707888353       -0.5425893633
 H         6.7003816411        1.1175447566       -0.4467239697
 H         8.2367100520        1.1805743904        1.4252593470
 H         7.9025668122        2.2818989012        2.8350083340
 H         7.4105240694        2.6808400502        1.2523760528
 H         5.5078553411       -0.4191196892        3.8274245754
 H         7.2984020546       -0.2979222527        3.5712070668
 H         6.5059451647        0.9429479780        4.4823817493
 H         4.8671727075       -1.4010202436       -1.2883749162
 H         6.6727712375       -1.2791854414       -1.2279401320
 H         3.6651475599       -0.2069544006       -4.3408276073
 H         4.2586302746       -0.4898712047       -5.9261851773
 H         5.7552807894        0.3229550070       -5.5320511315
 H         7.2050506760       -0.9042856361       -5.8100418529
 H         7.2518631068        0.6086571124       -4.7922324518
 H         7.6809138046       -2.4744966812       -4.4208516286
 H         8.2075760321       -1.2995334533       -3.3391149020
 H         7.1289870114       -2.6358499728       -2.7630187213
 H         2.6343621502       -2.7566547929       -5.6535628596
 H         2.0345489258       -2.0162300481       -4.3115076137
 H        -2.1827726723        1.1899227070       -4.5490348446
 H        -0.4746667039        1.5649993268       -4.6020539457
 H        -1.2410451677        1.3835333361       -6.1371140168
 H        -1.9068201884       -0.8765103887       -7.2995437365
 H        -0.9591299251       -2.1875376687       -7.9409575737
 H        -0.4544641684       -0.5100489672       -8.0893406146
 H        -1.3905602351       -3.1082323649       -5.9244950625
 H         0.3828944243       -3.4554827884       -5.9376239536
 H        -0.4910853602       -2.9183457408       -4.4665942003
 Na       -2.9526997884       -0.1636824997       -2.1715402409
