155

 C        -6.7472753928        0.2434597081       -3.7396128621
 C        -5.7347553217       -0.2735428592       -2.6975608905
 C        -6.0046430770       -1.2932512812       -1.6115192852
 C        -5.2727030140       -2.4865332258       -2.0750402264
 C        -5.9684603284       -3.8709849157       -2.3799013076
 C        -5.1913439356       -0.7100346534       -0.3228834376
 C        -7.4864780766       -1.6056054777       -1.3533813898
 O        -4.6540969874        0.2112774895       -2.7860094844
 O        -4.1180765607       -2.3714800410       -2.3720741406
 C        -5.1892827532       -5.1802751196       -2.0444393444
 C        -5.0536760249       -5.1732646440       -0.3910017436
 C        -4.0855494534       -6.2426769984        0.3126905222
 C        -2.7379296125       -5.3511197797        0.5538256039
 C        -2.9067330621       -4.2439980066        1.6070398544
 O        -5.7319806482       -4.4220999628        0.2910527376
 O        -1.7263548514       -5.6449836149       -0.0628038360
 C        -4.7113592922       -6.8713462574        1.5574245132
 C        -3.7694142244       -7.4310450875       -0.6959310794
 C        -1.6434200831       -3.4372421064        1.7880001557
 C        -1.4604750324       -2.4281183971        0.6321875324
 C        -0.2902747600       -1.3544113563        0.5383575909
 C        -0.8483630466        0.0265820057        0.4476348602
 C        -0.6327380592        1.1849560341        1.4820764815
 C         0.6340241665       -1.6367144177        1.7854631575
 C         0.4007887606       -1.6858547566       -0.8346708118
 O        -2.3217420802       -2.3875875364       -0.2156729965
 O        -1.3118512125        0.3421180909       -0.6760069085
 C        -1.6733135649        2.3332589578        1.2769229229
 C        -3.1016358635        2.0370319866        1.7246946734
 C        -3.5877658280        2.6339445790        3.1397918949
 C        -2.5799422588        2.2567373533        4.2883746835
 C        -2.2193583836        3.3177198846        5.3189713269
 O        -3.9359248670        1.4960198156        1.0780477812
 O        -2.0085783813        1.1659549617        4.3457517152
 C        -3.8823411078        4.1575632650        3.1091806224
 C        -4.9173737460        1.8933204602        3.4375901267
 C        -0.7429782332        3.3203171064        5.7066087896
 C         0.2797617793        4.0147163916        4.6113392827
 C         1.5657161583        4.6476987611        5.2868878698
 C         2.4995039571        3.4069223010        5.5595041067
 C         3.4221380610        3.0408670970        4.3332809912
 C         2.2584159050        5.5749056123        4.0890593630
 C         1.2878042160        5.3907840407        6.6018024867
 O        -0.0022616305        4.2187045027        3.4655178389
 O         2.3612333924        2.6076476393        6.5151686868
 C         4.0975975077        1.6933305273        4.4749496014
 C         4.8616781854        1.2775907116        3.2408840814
 C         5.0521742565       -0.1720519028        2.6148186626
 C         4.8893165828       -0.0219140653        1.0684221620
 C         5.8221370130        0.9776380376        0.1942953914
 O         5.3091295057        2.1866260094        2.5824339737
 O         4.0224064042       -0.6356726329        0.4700887146
 C         6.5330750174       -0.4694297384        2.9206994854
 C         4.0950832098       -1.2591486834        3.2131508734
 C         6.2555363283        0.1226924704       -1.0945192751
 C         6.2609978696        0.9818464165       -2.3758264808
 C         6.3230450983        0.1451263968       -3.7097538767
 C         4.8743017696       -0.3283749434       -4.0813307035
 C         3.8563352774        0.7055579632       -4.0977334752
 C         6.7758918090        1.0359238489       -4.9093154258
 C         7.3359282500       -1.0296794959       -3.5263970503
 O         6.2287823882        2.1848963313       -2.4169980380
 O         4.6239623149       -1.5553034280       -4.3465086289
 C         2.9887236651        0.4981052407       -5.4384576435
 C         1.6294746280        1.1479053118       -5.2577962488
 C         0.1910316001        0.5348322554       -5.6432643365
 C        -0.6085464720        0.5935417733       -4.3460949001
 C        -0.8692189439        1.9537734890       -3.5037330596
 O         1.6248419720        2.3222097614       -4.8852350018
 O        -0.9934282705       -0.4853930351       -3.9399635977
 C        -0.3632837582        1.4728661468       -6.7262940251
 C         0.3320603893       -0.9278359013       -6.1485380500
 H        -7.6466080332       -0.3959292861       -3.8611754015
 H        -7.1047467415        1.2159003816       -3.3937961417
 H        -6.3899266308        0.4326269816       -4.6878023116
 H        -6.9395627212       -3.8797889261       -1.7914633777
 H        -6.1920166913       -3.7454051255       -3.4938836893
 H        -4.1317900595       -0.5986327005       -0.4417137744
 H        -5.4193223705       -1.4101144727        0.4400926197
 H        -5.6098591583        0.2600518002       -0.0667809571
 H        -8.2030366704       -2.1003825890       -2.0635990764
 H        -7.6216506574       -2.3010070477       -0.4412490298
 H        -8.0534299641       -0.7039523719       -1.1215524021
 H        -5.8281429839       -5.9750569781       -2.3806262686
 H        -4.2697350134       -5.3447526949       -2.5291358562
 H        -3.8706508198       -3.6325973707        1.5855027495
 H        -2.9713764859       -4.7933801073        2.5588184284
 H        -4.7715752158       -6.2658920981        2.5439480643
 H        -4.1351439274       -7.7964756234        1.7743762172
 H        -5.7333722169       -7.2756989815        1.4703414618
 H        -4.8264804967       -7.7552520826       -0.9025277320
 H        -3.3740519549       -6.9671454505       -1.6991188087
 H        -3.0426615759       -8.0612492081       -0.2315048565
 H        -0.8155537065       -4.1942065170        1.8141277267
 H        -1.6866755602       -2.9585641407        2.8043667324
 H        -0.6787151562        0.8014182898        2.5405654072
 H         0.3710103167        1.6959020890        1.3723652638
 H         0.4155502028       -2.4916420538        2.4497463576
 H         0.7680798082       -0.7816766985        2.4746834461
 H         1.6175168428       -1.8587419649        1.3333737543
 H         0.3580660627       -2.7693101454       -1.0010282448
 H        -0.0914328837       -1.2512182792       -1.6971236310
 H         1.4577680667       -1.2928738746       -0.8659207820
 H        -1.3050316774        3.2488039276        1.8047375596
 H        -1.7384134618        2.6944564055        0.2663283407
 H        -2.4670808172        4.3442630993        5.1385404914
 H        -2.8098486165        2.9702896769        6.1850399864
 H        -2.9865343585        4.6416647575        2.7067074642
 H        -4.1880347499        4.5288335910        4.0641738967
 H        -4.6559394044        4.5187096760        2.4868172892
 H        -5.4487857920        2.3186203719        4.2799357093
 H        -5.6489606939        1.9353913934        2.6426898442
 H        -4.7770858735        0.7740744588        3.7285777225
 H        -0.1902864887        2.4543417903        6.0117115995
 H        -0.5569547999        4.0246383560        6.5493553365
 H         2.8309784114        2.9844731449        3.4413432338
 H         4.2135594912        3.8017851035        4.2162404099
 H         2.1864753883        5.0990129149        3.1215043214
 H         3.3010478502        5.6533584566        4.4800477584
 H         1.9330161986        6.5808984525        4.1800494855
 H         1.2187585058        4.7377705536        7.5067952414
 H         2.0804914563        6.0918537964        6.9300880241
 H         0.4208620926        6.0391661823        6.6144337918
 H         4.6440995545        1.7293087562        5.4300474259
 H         3.3089670859        1.0430215035        4.7788160645
 H         5.1891195913        1.8325555384       -0.2227893595
 H         6.6240398823        1.2082791976        0.8431298775
 H         6.7437615033       -1.5878255528        2.9119920612
 H         6.8854976691       -0.1280572234        3.8906891949
 H         7.2428063812       -0.1363891627        2.1017210606
 H         2.9681417225       -1.0572118097        2.9450407334
 H         4.4638459648       -2.1573053993        2.7164761689
 H         4.2247124697       -1.3300891896        4.3209792100
 H         5.5852175208       -0.6784100108       -1.2545155560
 H         7.2085165699       -0.4095429828       -0.9123062818
 H         3.1498383616        0.5652907705       -3.2296682273
 H         4.2158496468        1.7594399734       -4.0880933653
 H         6.5797511468        2.1460253452       -4.7714886200
 H         6.2178037921        0.6982528415       -5.8105643351
 H         7.8847308061        0.8940300246       -5.1480508314
 H         7.5735330930       -1.2389216906       -4.6315531872
 H         8.2267223901       -0.6630734863       -3.0014285042
 H         6.8845366229       -1.9268864161       -3.0389882240
 H         3.4891963851        0.9647717417       -6.2360489936
 H         2.9345027692       -0.5607150325       -5.6882935234
 H         0.0866274858        2.2795062787       -2.9821643587
 H        -1.1054378891        2.6489295912       -4.2373538528
 H        -1.7341731233        1.8079432104       -2.9142519259
 H        -1.3918926810        1.2617211388       -6.7479028628
 H         0.1125455906        1.2578930137       -7.6991839848
 H        -0.1528887385        2.5859147435       -6.5346275334
 H        -0.6463146255       -1.4532353447       -6.3839771723
 H         0.8918801178       -0.9435427681       -7.0955854208
 H         0.7219751132       -1.5765423376       -5.3651364515
 Na       -2.5684798288       -0.8459422990       -2.1256380107
