155

 C        -6.8581929589        0.6065991623       -2.8212275855
 C        -5.6982848101       -0.4177398733       -2.8963958801
 C        -6.1009453509       -1.7647634288       -1.9736300217
 C        -5.3223398951       -2.9805498375       -2.3422829552
 C        -5.8805804241       -4.5007356504       -2.5115761912
 C        -5.8335988767       -1.1722102571       -0.4678223114
 C        -7.7037245624       -2.0751904269       -1.8350256010
 O        -4.6493151656       -0.1634654749       -3.4485413563
 O        -4.1579381695       -2.8887155637       -2.6526404887
 C        -4.8656127427       -5.4496585287       -1.8219646706
 C        -4.9864453924       -5.4340869290       -0.2629946060
 C        -3.8954067775       -6.2623821015        0.4242388116
 C        -2.6423536426       -5.3697697805        0.5156236618
 C        -2.6442904156       -4.3147373105        1.5911891583
 O        -5.8720455058       -4.8264626371        0.3263670197
 O        -1.8217746738       -5.4486921377       -0.3381205495
 C        -4.3002979830       -6.6122143078        1.8735254300
 C        -3.4931069447       -7.5821167738       -0.3001942292
 C        -1.4067596771       -3.4744777516        1.4607094875
 C        -1.5015067395       -2.3593517884        0.5242843402
 C        -0.0843684999       -1.3332575970        0.2639223627
 C        -0.6922685424        0.1472393489        0.1234825866
 C        -0.5986595428        1.2667632883        1.1347554130
 C         1.0181614901       -1.5071020979        1.4452370867
 C         0.6226384790       -1.7991348104       -1.0462617575
 O        -2.4706083583       -2.0292299984       -0.1311041846
 O        -1.2539228296        0.3528636328       -0.9362390270
 C        -1.6036941367        2.4361173645        0.9281538593
 C        -2.9974223443        2.1307886650        1.5084996615
 C        -3.4114641899        2.8725218227        2.9194968080
 C        -2.4930948940        2.3166531210        4.0813181340
 C        -2.4039679554        3.0504797306        5.4291043941
 O        -3.7091544211        1.2748237202        1.0191302548
 O        -1.8606004294        1.2733811536        4.0669256133
 C        -3.3999086499        4.4007836519        2.8133872057
 C        -4.8460511705        2.4292506754        3.0948845925
 C        -0.9346327614        3.2322338978        5.8781733512
 C        -0.0829350945        3.9979675903        4.8600359307
 C         1.2993479389        4.6234773739        5.2624873511
 C         2.4012477286        3.4409355425        5.4023832926
 C         3.1121535442        2.9737922842        4.1265038765
 C         1.7418376311        5.8672561792        4.2886687131
 C         1.0606925130        5.2506254647        6.6144270956
 O        -0.4624392056        3.9259453125        3.6791536022
 O         2.6260916600        2.9729532876        6.5087190422
 C         3.5986088377        1.4861771946        4.1728214928
 C         4.9346783282        1.2237633139        3.5627977817
 C         5.3022905180       -0.2444919576        2.8976816965
 C         4.9056446000       -0.3002991094        1.3542889029
 C         5.5584579743        0.6018994901        0.4066485622
 O         5.6521547356        2.2015757281        3.4229219322
 O         3.9846788605       -0.9821123183        0.9684514334
 C         6.7672990826       -0.4329384557        3.0608374305
 C         4.5547168901       -1.4335093607        3.6756452819
 C         6.0587688766       -0.0586698274       -0.8493351849
 C         6.0208843399        0.9341551242       -2.0773091905
 C         6.3538744209        0.3431620623       -3.4939473826
 C         4.9378126974       -0.0566752944       -4.0591073689
 C         4.0009859973        1.0404243936       -4.3301521461
 C         7.0586732533        1.4684095868       -4.3867732261
 C         7.3635484000       -0.8639985501       -3.3856238505
 O         5.6132354472        2.0679722726       -1.9714232577
 O         4.7240613269       -1.2357014095       -4.2524116462
 C         2.7372266175        0.5342748252       -5.0025732318
 C         1.6171997405        1.5620179825       -5.2861436201
 C         0.0659455054        0.9507357858       -5.6295467369
 C        -0.6785526433        0.7016228663       -4.2815846999
 C        -0.9949618551        2.0277457545       -3.4874809451
 O         1.8706777689        2.7138997075       -5.3156489798
 O        -1.1489898041       -0.4048245490       -4.0291041923
 C        -0.4178719095        2.1504880258       -6.5665526528
 C         0.1510294105       -0.3702920328       -6.3587783704
 H        -7.5843638135        0.2805234717       -3.5073878471
 H        -7.4061367623        0.4281534070       -1.8962575746
 H        -6.6507136130        1.6591942280       -3.0803437538
 H        -6.9030947061       -4.6921879053       -2.1641198958
 H        -5.7792689672       -4.5408489255       -3.5428903412
 H        -4.9374687056       -0.6464380613       -0.3845492046
 H        -5.7735250807       -2.0691184495        0.1720627522
 H        -6.7275405909       -0.6271119441       -0.1487881750
 H        -8.2207519352       -2.6236090779       -2.6188699941
 H        -7.6977344854       -2.8461822297       -1.0652281136
 H        -8.3307959859       -1.3540651613       -1.3324253657
 H        -4.9836519795       -6.4160307697       -2.2582533973
 H        -3.8452901053       -5.1118565582       -1.9950413416
 H        -3.5203936675       -3.7141195820        1.5595355122
 H        -2.8050566183       -4.7487256425        2.6038830851
 H        -4.5281581070       -5.6801751947        2.4649091542
 H        -3.5323906199       -7.1071772663        2.5019437406
 H        -5.2096962404       -7.1085867155        1.8122426263
 H        -4.3605356004       -8.2420299617       -0.4680275412
 H        -3.1004267484       -7.0864946699       -1.2926500792
 H        -2.7745848900       -8.0303055058        0.3622822119
 H        -0.5623472866       -4.2101960523        1.1667702724
 H        -1.0589488067       -3.1014362852        2.4457138321
 H        -0.7049888324        0.9326678150        2.1757686670
 H         0.4004276442        1.5403502642        1.0425927190
 H         0.7879875010       -1.1906088482        2.4497001206
 H         1.8686565501       -0.8651510516        1.3286783154
 H         1.4170422076       -2.4865364531        1.4326741636
 H         0.4575109214       -2.8910862285       -1.2327550814
 H         0.2732370142       -1.1839893904       -1.9033941560
 H         1.6871109678       -1.7258585667       -1.0162125099
 H        -1.2307399780        3.3837151795        1.4488385273
 H        -1.6307645250        2.7819442476       -0.0662385414
 H        -2.9970860154        4.0185247644        5.4937315877
 H        -2.7592920810        2.3910987892        6.2338606744
 H        -2.4808323127        4.8405270171        2.5887245970
 H        -3.7102189185        4.8096673986        3.7894513052
 H        -4.0991752462        4.7258509165        2.0387739200
 H        -5.2577645671        2.8322338271        3.9800712422
 H        -5.5064466133        2.4896202347        2.3234704802
 H        -4.8571745023        1.3595432252        3.4161327477
 H        -0.3945615613        2.2608054746        5.8415306077
 H        -0.7961106021        3.6443757022        6.9083672971
 H         2.4788951614        3.0679239886        3.2408670658
 H         3.8411849961        3.5960119812        3.6916722204
 H         1.4761599082        5.6234081719        3.2654559200
 H         2.8234487950        5.9871822492        4.4503200526
 H         1.0179826811        6.7571302115        4.5423596921
 H         1.3576139636        4.5260819234        7.3780468672
 H         1.5848126024        6.1294413499        6.7632837200
 H         0.0119031526        5.5267288220        6.8191584751
 H         3.7644020107        1.2060950925        5.2014041551
 H         2.8506572226        0.8004378853        3.7615044289
 H         4.8133871091        1.3495128616        0.0976643126
 H         6.3474026846        1.3005720624        0.7974648730
 H         7.0057491718       -1.3520798789        2.6389407867
 H         7.1779279379       -0.4589098744        4.1188330899
 H         7.4342304840        0.2677187811        2.5775645217
 H         3.4216253993       -1.4497973017        3.5155645411
 H         4.9695553199       -2.4266872507        3.4058027368
 H         4.6093167219       -1.2370108084        4.7771955143
 H         5.4719218061       -0.9821811513       -1.0725454963
 H         7.1498414946       -0.1655409403       -0.8162120271
 H         3.8157480562        1.4399659520       -3.3021860306
 H         4.5204972477        1.9280965380       -4.7979382367
 H         6.3390987452        2.1554144793       -4.9439267839
 H         7.7193653840        0.9248992848       -5.1208603961
 H         7.5257922663        2.1333292210       -3.7188702562
 H         7.6102927981       -1.1777707507       -4.3957695960
 H         8.2953445107       -0.5519937575       -2.8701883564
 H         6.8489860897       -1.7723009331       -2.9243507950
 H         3.1209635033        0.2293501724       -5.9383107531
 H         2.5090632891       -0.3594824642       -4.5033232324
 H        -0.0072685102        2.2701452838       -3.0696662916
 H        -1.3299159356        2.7377839974       -4.2472717780
 H        -1.7711422908        1.9518584682       -2.7021798206
 H        -1.4924615871        2.0613058560       -6.8700575018
 H         0.1941384462        2.1512757784       -7.4829512758
 H        -0.2767339774        3.1092398460       -6.0153989802
 H        -0.8484837129       -0.5470689407       -6.7335654924
 H         0.9132691728       -0.3585191227       -7.2031030520
 H         0.4156885890       -1.1989572015       -5.6233784938
 Na       -2.5593084356       -1.0847239144       -2.3505678411
