155

 C        -6.8113239567        0.6460493483       -2.9516952721
 C        -5.8384840325       -0.5121067833       -2.6817879176
 C        -6.2219627774       -1.8648538696       -1.9792580056
 C        -5.1764989959       -3.0703329852       -2.4298402974
 C        -5.8376805087       -4.4649559146       -2.3675060421
 C        -5.6962981249       -1.7600216506       -0.4638812156
 C        -7.6894333224       -2.1237818248       -2.2767150004
 O        -4.6544155939       -0.4233730871       -3.0122922320
 O        -3.9999314661       -2.9176559871       -2.7746790436
 C        -4.9222551067       -5.5085889082       -1.8528528761
 C        -4.9396985508       -5.5679388272       -0.3173538685
 C        -3.8374147117       -6.2797266254        0.5187472391
 C        -2.5834605468       -5.2974944348        0.4981830229
 C        -2.4642309555       -4.2402820014        1.6532978352
 O        -5.7313270948       -4.9267967255        0.3107868003
 O        -1.7901132586       -5.3430084773       -0.4322281347
 C        -4.4665541813       -6.7234362458        1.8700940049
 C        -3.5047061626       -7.6120460528       -0.1531888973
 C        -1.2004913136       -3.2787630386        1.5451793939
 C        -1.3575126304       -2.2002851822        0.4186461336
 C        -0.1469897984       -1.2585502232        0.1622481081
 C        -0.7255260877        0.2063104577       -0.0614387348
 C        -0.4093227717        1.2236147732        1.0107064869
 C         0.9010973264       -1.2860126916        1.3557746368
 C         0.3786146132       -1.8956793024       -1.1672945009
 O        -2.3286900804       -2.2043301923       -0.3126021712
 O        -1.4454422690        0.5176821654       -0.9948027749
 C        -1.3606338939        2.3828417631        1.0186693783
 C        -2.7439607017        2.1181003158        1.6171036808
 C        -3.2682462343        2.9155951225        2.9354919677
 C        -2.4790818873        2.2849344400        4.0384329900
 C        -2.4972860262        3.0088241013        5.3192588858
 O        -3.5087349260        1.3076664163        1.1195491110
 O        -1.9246304543        1.2184810341        3.8093565827
 C        -3.2110226237        4.4246964994        2.5957130139
 C        -4.7236903538        2.4989807157        3.3132483698
 C        -1.1343141112        3.2956029625        5.9236394425
 C        -0.1762130063        3.9627419319        4.8683082344
 C         1.1737007493        4.5013463319        5.3270057726
 C         2.2775437242        3.3481868937        5.2646778181
 C         2.9331449675        2.9718035134        3.9529070741
 C         1.5805139093        5.6018284792        4.2932821044
 C         1.1139030613        5.1589837980        6.7528194750
 O        -0.4009382774        3.9279425171        3.6824653399
 O         2.6121471656        2.9534599722        6.3384690021
 C         3.4941131025        1.4905814432        3.9591728417
 C         4.9334803426        1.2215527486        3.5250867071
 C         5.3353857633       -0.2321075578        3.0390642016
 C         4.9204384549       -0.3161532626        1.6021138596
 C         5.5704931910        0.5984202115        0.5710388863
 O         5.7293514786        2.1086213056        3.5243603547
 O         3.9318547813       -0.9741250980        1.2932976992
 C         6.8680181348       -0.3492795124        3.2295094271
 C         4.5891204164       -1.2513418143        3.8916785905
 C         5.8323487304       -0.0900938766       -0.7454883468
 C         5.8746874194        0.9477333383       -1.9346121743
 C         6.4048572236        0.4689936041       -3.4112520792
 C         5.0810410740        0.0163563151       -4.1228772239
 C         3.9655331119        1.0657787432       -4.6184603367
 C         7.1173782070        1.7174237752       -4.0961834532
 C         7.2688915831       -0.7911039093       -3.3357840495
 O         5.4121547891        2.0401260948       -1.8436705738
 O         4.7328380081       -1.1515523438       -4.2266663184
 C         2.5477178478        0.4219193331       -4.7529378710
 C         1.5912878759        1.4641249421       -5.2479583257
 C         0.1167756810        1.1299885673       -5.7134608830
 C        -0.7418160032        0.8871109375       -4.4333208936
 C        -1.0684646084        2.1141493674       -3.5258963755
 O         1.8915720015        2.6399701156       -5.1418135141
 O        -1.1961297892       -0.2308924039       -4.2712071653
 C        -0.5384825648        2.2243151047       -6.5789272802
 C         0.2164667902       -0.1931964278       -6.5409950478
 H        -7.8555606979        0.4467325541       -3.2966735428
 H        -6.9458207037        1.1978907561       -2.0477740342
 H        -6.3007662002        1.2228207141       -3.7230821283
 H        -6.6847429822       -4.3347397983       -1.7463511195
 H        -6.1233006613       -4.5858439090       -3.4715765630
 H        -4.5676009414       -1.9350762587       -0.5138097633
 H        -6.1276200138       -2.5782861416        0.1024195417
 H        -5.9823958364       -0.8353612421        0.0269171363
 H        -7.7762585639       -2.2505595290       -3.3376933322
 H        -8.2000457279       -2.9366070013       -1.7779460936
 H        -8.2663976416       -1.2279026951       -2.0255560845
 H        -5.3189411526       -6.4976486524       -2.2430766206
 H        -3.8854436509       -5.3587115477       -2.2266189699
 H        -3.3309424503       -3.5296120540        1.6399697057
 H        -2.6264520854       -4.6977024415        2.5982305518
 H        -4.4868555086       -5.9476710284        2.5432315593
 H        -3.8566504541       -7.4790158151        2.3077076851
 H        -5.4897852760       -7.1388468925        1.7320101021
 H        -4.3847799739       -8.1180846896       -0.2736663525
 H        -2.9818709894       -7.3787995333       -1.0557359136
 H        -2.8984464903       -8.2158566786        0.4833888100
 H        -0.3444378973       -3.8386037645        1.5165479699
 H        -1.0989354000       -2.7760685336        2.4984187803
 H        -0.3571652048        0.8288977721        2.0061259949
 H         0.6581868160        1.6146970065        0.7873248583
 H         0.5445104921       -1.2619992550        2.3850529908
 H         1.6295085355       -0.4578664943        1.2757056676
 H         1.5118574121       -2.1994548502        1.3129114085
 H         0.5415998260       -2.9374958239       -1.1497509783
 H        -0.3850595359       -1.6564662893       -1.8840227526
 H         1.3365848639       -1.4555782358       -1.5001670009
 H        -0.8658883477        3.1938883026        1.4624362746
 H        -1.5118349303        2.7670064978       -0.0516884877
 H        -2.9590546768        3.9600953080        5.2434291129
 H        -3.0556700644        2.4519970778        6.0922699158
 H        -2.1261243691        4.7423051312        2.7594790832
 H        -3.7167413903        5.0536436682        3.3093543461
 H        -3.6033069312        4.6610307556        1.5933443225
 H        -5.0110220573        2.8185440371        4.3293463510
 H        -5.5232817102        2.9426090850        2.6310764957
 H        -4.9596321377        1.5020148753        3.3357498278
 H        -0.5030572559        2.4529178619        6.2164416724
 H        -1.2629975677        3.9293224631        6.7735817871
 H         2.3191834477        3.1365527791        3.0562597266
 H         3.6592334871        3.7744524538        3.6194947934
 H         1.7852874494        5.2597907438        3.2790778410
 H         2.4319036948        6.0152172963        4.7576501303
 H         0.7730896009        6.2587658956        4.2728489164
 H         0.5912009115        4.5871662583        7.5180207710
 H         2.2143180730        5.2690765177        7.0811941987
 H         0.5631471906        6.1240050841        6.7174018335
 H         3.3134435426        1.1905066485        5.0206105993
 H         2.8872592878        0.8651504064        3.2904793102
 H         4.9873418573        1.5024949834        0.4352149797
 H         6.4789129863        1.0748289258        0.8803790943
 H         7.3680971950       -1.2978851781        3.0682797210
 H         7.1478796384       -0.0159028792        4.1896561780
 H         7.3717317264        0.3571988323        2.6231148271
 H         3.5764644446       -1.2191252365        3.7882029852
 H         4.9154242518       -2.2188322095        3.5205596728
 H         4.8534102827       -1.2413065086        4.9326404167
 H         4.9270136082       -0.5912161691       -1.0684841947
 H         6.7457575267       -0.6900155359       -0.7559209255
 H         3.9222162879        2.0395570366       -4.1725225126
 H         4.2569168262        1.2615745712       -5.6111976038
 H         6.4241689937        2.4760112426       -4.3066260621
 H         7.5093458096        1.2705238974       -4.9718760631
 H         7.9539647614        2.1014508310       -3.4597020281
 H         7.6345046809       -1.0774510310       -4.3063011009
 H         8.1423102006       -0.5780358534       -2.7340237823
 H         6.7139777484       -1.5783750588       -2.9592622898
 H         2.6819532183       -0.5252979128       -5.4006949458
 H         2.1663814821        0.0613767398       -3.7104241012
 H        -0.1755072066        2.4859531286       -3.0762870862
 H        -1.5699855864        2.7836713737       -4.2687093765
 H        -1.8078107322        1.8678218804       -2.7504371199
 H        -1.5726953028        1.9191004819       -6.7757677588
 H        -0.1106696706        2.1258351704       -7.5861649329
 H        -0.4852238910        3.2157933141       -6.2132620652
 H        -0.8013756159       -0.5397406198       -6.7371908489
 H         0.6656261056        0.0559547592       -7.4524131283
 H         0.8381420302       -0.9129152842       -6.1026493336
 Na       -2.5858765043       -1.0991479741       -2.4138967912
