155

 C        -6.8948221805        0.3263323633       -3.7141238182
 C        -5.8954753969       -0.6265094544       -2.9012359731
 C        -6.1556449546       -2.0764748083       -2.4076172116
 C        -5.0506129784       -3.1473646708       -2.9391756302
 C        -5.3176550703       -4.6265560166       -2.7043340814
 C        -6.0933946954       -2.0632017617       -0.8514969086
 C        -7.5487235393       -2.5524653931       -2.9233946154
 O        -4.8361858620       -0.1431659570       -2.5959998943
 O        -3.9399964791       -2.8648807729       -3.3786262744
 C        -4.1688463420       -5.3073846916       -1.9454421676
 C        -4.4996174164       -5.6839330064       -0.3782281550
 C        -3.3037511187       -6.2847988407        0.4780523682
 C        -2.1817432675       -5.2632076643        0.6784881530
 C        -2.6548130025       -3.9584702416        1.4041453215
 O        -5.5356833214       -5.3090425919        0.0655407630
 O        -1.0061294281       -5.4791846323        0.6476068511
 C        -3.8041876011       -6.7042120752        1.8976032572
 C        -2.5835612221       -7.4768095942       -0.2756971058
 C        -1.5035272265       -2.8896145744        1.2733191530
 C        -1.2606988439       -2.3118544511       -0.1029093719
 C         0.0119221840       -1.4984099776       -0.3453345298
 C        -0.4522132117        0.0488409378       -0.4393819165
 C        -0.5715956485        0.8326161871        0.8763882208
 C         1.0949207070       -1.6557296907        0.7714169576
 C         0.6453933792       -1.6257163230       -1.8129808523
 O        -2.2013268104       -2.4012531527       -0.8571898304
 O        -0.9244912412        0.5223876726       -1.4545664168
 C        -1.3213642654        2.1614454552        0.8729081245
 C        -2.7329140851        1.8647267822        1.4235015055
 C        -3.3451592171        2.7200836352        2.5680522626
 C        -2.3023929661        2.5346031105        3.8594744194
 C        -2.4278597002        3.4009582094        5.1474685981
 O        -3.3908995339        0.9206411838        0.9571397435
 O        -1.3797737789        1.7380045840        3.6359415089
 C        -3.1707230321        4.2113890612        2.2806708474
 C        -4.7900392903        2.4131876788        2.8711441318
 C        -1.1319040783        3.5766302412        5.9750026326
 C        -0.0466021492        4.3022509352        5.1268067717
 C         1.4434617024        4.3819280974        5.6387640603
 C         2.1231064449        3.0283689509        5.2588691802
 C         2.3053212570        2.6530772461        3.7200165308
 C         2.1187031169        5.4399017394        4.7820380470
 C         1.4473674238        4.5378243405        7.2209154060
 O        -0.2797222315        4.8695900043        4.1212799324
 O         2.2327425156        2.1002737402        6.0133311612
 C         3.1220545949        1.3018016449        3.5072054664
 C         4.7175480288        1.4370944525        3.6150548901
 C         5.6120729450        0.0814815634        3.4873124250
 C         5.1777303656       -0.4811743359        2.1330574923
 C         5.8619842619       -0.0904787797        0.9029691151
 O         5.2332304782        2.5337475316        3.7459529975
 O         4.2478254054       -1.3011883927        2.1222900128
 C         7.1555618105        0.4583347180        3.5203722758
 C         5.2753778294       -0.8259616265        4.7585827250
 C         4.9910294577       -0.2724209627       -0.3918100499
 C         5.0148197636        0.9151253416       -1.3012618362
 C         5.8422658416        0.8258931974       -2.5560571937
 C         4.6735826005        0.2991623656       -3.5226441282
 C         3.6381152880        1.3624830657       -4.0490903270
 C         6.2949754565        2.2746320111       -3.0661993833
 C         6.9851483869       -0.2018000787       -2.5222757266
 O         4.3481034988        1.8523362685       -1.0311894354
 O         4.5829124995       -0.9064523556       -3.7140862610
 C         2.4128510856        0.6553925243       -4.7952902143
 C         1.2454549279        1.6500754949       -5.0078984622
 C        -0.0819040892        1.1751520551       -5.9295093591
 C        -1.2450250007        0.6845182528       -4.9288238090
 C        -2.1748001876        1.7517890042       -4.3828666399
 O         1.2372410900        2.7628432839       -4.6045226440
 O        -1.2311616453       -0.4312565881       -4.4043341302
 C        -0.6291962012        2.4169210495       -6.6783611494
 C         0.3450114499        0.0085276619       -6.7866358648
 H        -7.5135910947       -0.3094717218       -4.3802344079
 H        -7.4945061794        0.8551209550       -2.9827110268
 H        -6.4771967024        1.1487911424       -4.2042434481
 H        -6.3427599759       -4.6673542778       -2.2212032431
 H        -5.5564971343       -5.1190526294       -3.7418221791
 H        -5.1693964466       -1.5957016632       -0.4137439251
 H        -6.2875952036       -3.0700327884       -0.5410333609
 H        -6.9255194567       -1.3926333306       -0.6036568058
 H        -8.0996368246       -1.7888904877       -3.3473975967
 H        -7.5054487771       -3.3915616992       -3.5605129846
 H        -8.0125965916       -2.8709931399       -2.0457560240
 H        -3.9219718354       -6.2950547130       -2.3381861594
 H        -3.2120389143       -4.7377043737       -2.0916477725
 H        -3.4930486908       -3.4619419866        1.0107277701
 H        -2.7093396655       -4.2087398935        2.4769224922
 H        -4.3844618793       -5.9487991577        2.2539498893
 H        -2.9681559789       -6.8615403187        2.5119836553
 H        -4.4706286245       -7.5787705035        1.7885027109
 H        -3.2524509875       -8.2555964226       -0.6973606859
 H        -2.0772678104       -7.1503179859       -1.2991479517
 H        -1.8763722011       -8.0475341984        0.3288125059
 H        -0.6561356758       -3.4595445202        1.6593481586
 H        -1.6687519227       -2.0719266116        1.9151058298
 H        -1.0756346173        0.1294346147        1.6631867450
 H         0.4511269432        0.9296141589        1.3139123446
 H         0.8097860160       -0.9896172202        1.5217670322
 H         1.9610846525       -1.1294409201        0.4571068282
 H         1.3553724276       -2.6969479291        1.0436824217
 H         0.9056724002       -2.6562517885       -1.9981937169
 H         0.0109367787       -1.2488221475       -2.5933552096
 H         1.5150848590       -0.9681168680       -1.8892555438
 H        -0.7160942158        2.8554378324        1.4793940263
 H        -1.3908891546        2.3710220036       -0.2049009194
 H        -2.8384454187        4.3826914911        4.8986915686
 H        -3.1397289529        2.9722653133        5.8088158284
 H        -2.1299514794        4.3794657716        1.8919340855
 H        -3.4804535273        4.7191701554        3.1765221679
 H        -3.8150855036        4.4396826298        1.4824416230
 H        -5.1843564248        3.0437303631        3.6980089759
 H        -5.5209569312        2.5537930967        1.9834684205
 H        -4.9902383454        1.4544010991        3.1919245690
 H        -0.7798796330        2.6122432727        6.2382407584
 H        -1.3268699704        4.1297356465        6.9408354231
 H         1.3356660797        2.5761578371        3.1696116983
 H         2.9596292112        3.3963711191        3.1929459617
 H         2.0314180567        5.2646332570        3.6943259476
 H         3.1348162606        5.5543612903        5.1148996607
 H         1.6352439965        6.3464641927        4.8908060108
 H         0.8346886826        3.7689789374        7.6409070089
 H         2.4874929933        4.4422910017        7.6485112890
 H         1.2216828179        5.5632264809        7.3640809969
 H         2.7101783746        0.7145558359        4.3516400895
 H         2.8924331483        0.7105584541        2.5860749492
 H         6.2733495622        0.9285298047        0.9392425692
 H         6.6751457549       -0.8152920540        0.8935374435
 H         7.7845327313       -0.3970234994        3.2283212127
 H         7.3982222630        0.7457366061        4.4747924574
 H         7.3613301282        1.3032015182        2.9108121327
 H         4.2699277537       -0.9591986765        4.7764880974
 H         5.7605760154       -1.7870094665        4.8004898329
 H         5.4699644405       -0.2422181424        5.6356430622
 H         3.9986160668       -0.5447017103       -0.1615847746
 H         5.2828407501       -1.2414620578       -0.8504898734
 H         3.3060778968        1.9010062221       -3.1938020334
 H         4.0812678020        2.1567220496       -4.7358037502
 H         5.6054197667        2.9163155223       -2.5926924806
 H         6.1887687629        2.2989544491       -4.0784883283
 H         7.2997894788        2.4898178955       -2.6100879078
 H         7.7177148042        0.0185809275       -3.3377535701
 H         7.4718964141       -0.0732840670       -1.6062700875
 H         6.8204341083       -1.2236892312       -2.5430057053
 H         2.7713033945        0.1297400397       -5.7109841857
 H         2.0244778068       -0.1666037138       -4.1806012713
 H        -1.9068521975        1.5838698611       -3.3155458125
 H        -1.8440027496        2.7195330499       -4.7222085888
 H        -3.2383458891        1.4642955882       -4.5147501700
 H        -1.6061341013        2.2788755321       -7.0746028033
 H         0.1241612870        2.6687250208       -7.4533473778
 H        -0.6207758146        3.3848842384       -6.1296691253
 H        -0.3403783289       -0.4148055737       -7.5471571648
 H         1.2459547577        0.3643533343       -7.2321281483
 H         0.5308338797       -0.8287743594       -6.1359879790
 Na       -2.4820304180       -0.9890694051       -2.7191270466
