155

 C        -6.4420704924       -1.7558775951       -5.5899659912
 C        -5.6775714874       -1.6479625746       -4.2373132986
 C        -6.0313390138       -2.7112762189       -3.0884551430
 C        -4.8239052419       -3.8958914465       -3.1036674718
 C        -5.1673070292       -5.4030882953       -3.2145517230
 C        -5.9489905618       -1.9245846257       -1.8124579096
 C        -7.3595944224       -3.4032768129       -3.1170594228
 O        -4.8641578862       -0.7382170441       -4.0874777288
 O        -3.6810997373       -3.5220463709       -3.0124353788
 C        -4.0832071761       -6.2593470698       -2.5818231791
 C        -3.9517420851       -5.9350281905       -1.1053148763
 C        -2.6629303874       -6.3137927191       -0.3056262164
 C        -1.8241739606       -5.0922403978       -0.0359193047
 C        -2.3359918992       -4.1603195579        1.0261805152
 O        -4.7750807051       -5.2119741867       -0.5471485025
 O        -0.8114517001       -4.8298235981       -0.6855253816
 C        -3.1943837461       -6.9300988075        1.1652599602
 C        -1.7585648426       -7.3192284297       -1.0500015835
 C        -1.5281131501       -2.8802026482        1.1134409337
 C        -1.3878454304       -2.2153910209       -0.1960595872
 C        -0.2552398359       -0.9831049987       -0.3101443546
 C        -0.9851494313        0.4699554406       -0.6507427122
 C        -0.2474486938        1.7531238444       -0.2153133163
 C         0.6950620494       -0.9519606148        0.9404111361
 C         0.6614339648       -1.4193960346       -1.4401402900
 O        -2.0267076555       -2.5318982907       -1.2064389633
 O        -1.8034127649        0.4926560496       -1.5397500231
 C        -1.2652596347        2.6099698019        0.4975358817
 C        -2.1605896314        1.7901630314        1.5021183362
 C        -2.9375075090        2.5252695000        2.5914716214
 C        -1.7586747618        2.9702751264        3.6789893845
 C        -2.0677692837        4.1999211752        4.5574970426
 O        -2.2928577903        0.6224874866        1.2863897408
 O        -0.7880941086        2.3126678856        3.8177232287
 C        -3.5472030112        3.8694536892        2.0260684926
 C        -3.8730940255        1.5282730255        3.4167707710
 C        -1.2647110750        4.2319296098        5.8658981862
 C         0.1633360398        4.5863701921        5.5510030247
 C         1.3717047392        4.1092060065        6.4250309025
 C         2.1938766118        2.9886001401        5.6934337685
 C         2.4733077213        3.2003700084        4.1682288296
 C         2.2853928579        5.3908730763        6.6938789023
 C         0.8251094672        3.5563239819        7.7394174375
 O         0.4659325351        5.1710617976        4.5040642203
 O         2.5502848973        2.0387216575        6.3914105730
 C         3.1542787381        1.8784703076        3.6892498774
 C         4.6455410799        1.8641234039        3.8816420399
 C         5.3740225730        0.3788554586        3.9905775567
 C         5.2832932682       -0.3957605990        2.5958592644
 C         6.1024208616        0.1357465491        1.4828251566
 O         5.2734833169        2.8872318181        3.9786480905
 O         4.5017270244       -1.3572275516        2.5857912197
 C         6.8314314652        0.6629711215        4.2816387261
 C         4.7501776511       -0.3879704297        5.1906575122
 C         5.6319182010       -0.3180049206        0.0930465095
 C         4.3201489017        0.5097056470       -0.3181071029
 C         4.3544501692        1.5657248227       -1.5302268703
 C         3.5041295808        1.0941540639       -2.8306237546
 C         3.4236732799        2.0262409900       -3.9924863680
 C         3.8044300446        2.9074467744       -0.9469189281
 C         5.8036718463        1.9100607897       -2.0221357934
 O         3.3775191552        0.3621627213        0.4267174098
 O         3.1365917705       -0.0795113744       -2.8859215181
 C         2.5339032419        1.3848913126       -5.0144699018
 C         1.0358049400        1.7510441932       -4.9396768375
 C         0.0681682938        0.9481628470       -5.9807019047
 C        -1.1089359642        0.3454578135       -5.2508349826
 C        -2.3233182361        1.2301875089       -4.9956641576
 O         0.6080240992        2.6303027440       -4.1859282694
 O        -1.0767874945       -0.8012083723       -4.7523925802
 C        -0.5380052925        2.0409199227       -6.9986613929
 C         0.8901258614       -0.0500178284       -6.7947739823
 H        -6.4444010754       -2.8074645821       -5.9162917155
 H        -7.4534580044       -1.5623113383       -5.2955733066
 H        -6.1652698821       -1.1130628365       -6.4295649435
 H        -6.0741556206       -5.6242201824       -2.6365863731
 H        -5.2541880289       -5.6472854462       -4.3283824445
 H        -5.0230102816       -1.2639632099       -1.7337357162
 H        -5.9758919019       -2.6230630786       -0.9985245681
 H        -6.8433136635       -1.2778654353       -1.8096289622
 H        -7.3667971223       -4.2468958082       -2.3665612395
 H        -8.2936371467       -2.9231106127       -2.7496117257
 H        -7.6173121533       -3.9925898421       -4.0714478267
 H        -4.3503470984       -7.2987841515       -2.7879672648
 H        -3.0771001394       -5.9997997691       -2.9525095114
 H        -3.3900816032       -3.9909212126        0.8950268912
 H        -2.3057748323       -4.7928055938        1.9524970880
 H        -3.9085497388       -6.1401149213        1.5696159339
 H        -2.3366215310       -7.2713874257        1.8298222620
 H        -3.8292235355       -7.7635754752        0.9658660615
 H        -2.3825064329       -8.1539204926       -1.3370660562
 H        -1.4342921794       -6.8408187308       -2.0588515223
 H        -0.9043603930       -7.6227636795       -0.4265744006
 H        -0.5530906915       -3.1546708356        1.5218157643
 H        -1.8590760335       -2.2341937114        1.8300887417
 H         0.6103840767        1.4709017198        0.4047422498
 H         0.2344704580        2.2004715972       -1.0591891935
 H         0.1487849392       -0.5596333523        1.8004137644
 H         1.4172751059       -0.1880186499        0.7159556184
 H         1.2305580908       -1.9293913873        1.0040689402
 H         0.8670812886       -2.3828052181       -1.0276410896
 H         0.1448978818       -1.4954815890       -2.3678375509
 H         1.5704086383       -0.8475726421       -1.6448847025
 H        -0.7768908179        3.4765328979        1.0101376093
 H        -1.9449462514        3.0285615771       -0.2003142618
 H        -1.7079234653        5.1257797193        3.9676004257
 H        -3.1619078061        4.3288270904        4.6427459290
 H        -2.6889065105        4.6136136262        1.8197473067
 H        -4.2517744240        4.2290643403        2.7917694226
 H        -4.0469948632        3.6446486642        1.0950404088
 H        -4.0263150374        1.9984283642        4.3538078101
 H        -4.7984809561        1.3750944233        2.9244707177
 H        -3.3081969113        0.5738199146        3.5669877382
 H        -1.4674511396        3.2873293204        6.3380526157
 H        -1.7160161250        4.9782595597        6.5195754993
 H         1.4495048791        3.3732117427        3.7728235639
 H         3.2659132497        3.9881218414        3.9554569013
 H         3.2628675851        5.2519349329        6.3375539732
 H         2.4945939119        5.5591823649        7.6979365183
 H         1.8084182384        6.3221600208        6.1674172714
 H         0.3979982214        2.5782118012        7.5107759876
 H         1.6578270711        3.4586525273        8.5054985457
 H         0.2030613067        4.2630475137        8.2588464885
 H         2.7394992050        0.9984745213        4.1184339300
 H         3.0481236383        1.6875245503        2.6113179881
 H         6.3429063708        1.1842200936        1.4985614238
 H         7.0734707091       -0.3980778849        1.7214864022
 H         7.3925248043       -0.3056807972        4.3712144554
 H         6.9215286199        1.1193840480        5.2992297231
 H         7.3214809352        1.3624149468        3.5920422811
 H         3.7983219389       -0.9410348837        4.8751881481
 H         5.4906016666       -1.1419469851        5.5911627724
 H         4.3607585093        0.2898694879        5.9729179268
 H         5.3945558019       -1.3849447601       -0.0885023078
 H         6.3987169023       -0.1458254908       -0.7095422651
 H         2.9847620029        2.9414874199       -3.6449403822
 H         4.3954022824        2.2260318529       -4.3308314993
 H         2.9061461876        2.7023172722       -0.3436586111
 H         3.5901414575        3.5860041661       -1.7645026348
 H         4.4430032022        3.3955367803       -0.1462343590
 H         5.7776757800        2.9481606012       -2.4467962836
 H         6.5067819385        2.0540065365       -1.1430478870
 H         6.3163563392        1.2497009561       -2.7442245579
 H         2.7212878426        1.7807863463       -6.0969530177
 H         2.4994068181        0.3329359771       -5.1070504205
 H        -2.5880944641        1.8292460513       -5.7883073769
 H        -3.1953984666        0.6683742577       -4.5852814243
 H        -1.8960936152        1.7881332239       -4.1135081355
 H        -1.1766044190        1.4370464125       -7.6340197563
 H         0.2275198696        2.4623330307       -7.7151642481
 H        -1.1552938137        2.8450198903       -6.6512950518
 H         0.2911397470       -0.4162491951       -7.6497371323
 H         1.7402075833        0.3554903258       -7.2544933408
 H         1.0971804456       -0.9146408763       -6.2302518676
 Na       -2.5578307146       -1.4304119633       -3.0890298333
