155

 C        -6.1791427547       -2.2766876747       -6.3039495737
 C        -5.4897369274       -2.0757650735       -4.9295292109
 C        -5.9103008270       -2.8851900621       -3.5786059153
 C        -4.7158172077       -3.9480376472       -3.3135754275
 C        -5.1150648407       -5.4070839161       -3.2534529066
 C        -5.9306883825       -1.9703209154       -2.2852033456
 C        -7.2877239551       -3.5959684115       -3.7321064202
 O        -4.6345035798       -1.2086731684       -4.8207634564
 O        -3.5657903123       -3.5582296507       -3.1912851616
 C        -3.9181707148       -6.3813836242       -2.7604925518
 C        -3.8497074958       -6.5016627882       -1.1831961173
 C        -2.5153693216       -6.8236106691       -0.5000005783
 C        -1.8649606681       -5.3155203559       -0.2813172968
 C        -2.5385447849       -4.4044911143        0.8444747641
 O        -4.8660342107       -6.2097103562       -0.5515674354
 O        -0.8774307231       -5.0444676056       -0.8701791091
 C        -2.8830709738       -7.3915683152        0.9067092831
 C        -1.4317201282       -7.6467133270       -1.3062724745
 C        -1.8923679356       -3.0642762061        1.0820298443
 C        -1.8928112268       -2.1048121172        0.0023672707
 C        -0.6176162445       -1.2527051562       -0.3267482735
 C        -1.1039487952        0.1755188417       -0.7877058384
 C        -0.6550834913        1.5124714438       -0.0760292191
 C         0.3633787570       -1.1941429113        0.8588234175
 C         0.2357938124       -1.9268509375       -1.5523238208
 O        -2.8329233442       -2.0229489067       -0.7905643759
 O        -1.7134102595        0.3821841019       -1.8119110526
 C        -1.9039726090        2.3586137580        0.3396588333
 C        -2.6357546439        1.6480514428        1.5322844466
 C        -3.0796677205        2.4155612421        2.6673115964
 C        -1.7772972866        2.7535977006        3.5136926422
 C        -1.8627360205        3.8469365670        4.5913480543
 O        -2.7922958708        0.4144611303        1.4865645887
 O        -0.6839580323        2.2275713434        3.2658543778
 C        -3.6552475549        3.8328236878        2.2294882075
 C        -4.0461613284        1.7119419778        3.5946797551
 C        -0.9277854139        3.6331546819        5.7836378089
 C         0.3250404334        4.5754510181        5.6813570155
 C         1.6402870491        4.1426371920        6.5035229402
 C         2.3742201444        3.0768786367        5.8182632703
 C         2.7408146218        3.1399946787        4.3680987207
 C         2.4460808168        5.4912803858        6.6463301168
 C         1.1893296306        3.6949250914        7.8925643690
 O         0.2554901218        5.5998711631        4.9949357440
 O         2.6275551891        2.0413559194        6.3722195806
 C         3.2382710379        1.8087826875        3.8311550659
 C         4.7328936126        1.7579080807        3.9286249646
 C         5.3873235042        0.3084445484        4.1369262613
 C         5.0856051770       -0.2657330308        2.6880369007
 C         5.8607508931        0.4691794981        1.5334680402
 O         5.4159510157        2.7505362476        3.7259067260
 O         4.2997414946       -1.1449309713        2.5951608546
 C         6.9194079873        0.4011505167        4.2644894790
 C         4.7226361120       -0.4849034499        5.3364696655
 C         5.2309181169        0.5326847711        0.1523104712
 C         4.2165236284        1.6441378351       -0.1022973626
 C         4.2675602532        2.5557218720       -1.3679097694
 C         4.1953255690        1.5503682688       -2.5740693613
 C         3.7636669364        2.1143890759       -3.8910585198
 C         3.1589501682        3.6561786174       -1.3414394578
 C         5.6323341396        3.3592817646       -1.5746355177
 O         3.3361849483        1.9212074753        0.7222042326
 O         4.3957799077        0.3670650342       -2.4811933562
 C         2.8102831412        1.1650991601       -4.6274845732
 C         1.2268223854        1.6649892673       -4.6450746747
 C         0.2936086766        0.7722617079       -5.5552271895
 C        -1.1313378164        0.5276681116       -4.9547004996
 C        -2.1787198185        1.7562387320       -4.8714648512
 O         0.8486702963        2.7048280632       -4.0789907018
 O        -1.3944551311       -0.5414101188       -4.5031617215
 C         0.1984285602        1.7609067096       -6.7657234351
 C         0.8754555234       -0.6022702973       -5.9287520883
 H        -6.5512421948       -1.3079178065       -6.6155853917
 H        -5.3583581511       -2.5283688868       -6.9683801955
 H        -7.0541303195       -3.0054347685       -6.2944073224
 H        -5.9552695407       -5.6090663894       -2.6734857109
 H        -5.5074586388       -5.5700298998       -4.2322677086
 H        -5.1872905612       -1.2127753706       -2.1122193566
 H        -6.1139653891       -2.6425672526       -1.4551779872
 H        -6.8598572507       -1.4654579905       -2.3632667315
 H        -7.7004330387       -3.6207337093       -2.7317025855
 H        -7.9114178693       -3.1645797719       -4.4959143088
 H        -7.1166793965       -4.5459232318       -4.1023341563
 H        -3.9791394903       -7.2816312960       -3.3123779301
 H        -2.9744881216       -5.9752264675       -3.1319742589
 H        -3.5434775942       -4.1904393835        0.4689029403
 H        -2.4113210203       -4.9528613088        1.8343937039
 H        -3.7697994557       -6.8847858380        1.3550488811
 H        -2.1122909357       -7.4405236571        1.6580346775
 H        -3.2158696145       -8.4396542192        0.6654207363
 H        -1.8249685035       -8.5604554535       -1.5598511204
 H        -1.2564332370       -7.0386770931       -2.0376354784
 H        -0.5490882758       -7.7504581808       -0.7004764110
 H        -0.9141951531       -3.3904860886        1.4583668585
 H        -2.4124032142       -2.6961976012        1.9707624664
 H         0.0827828368        1.3674430848        0.6456131125
 H        -0.2776489794        2.0631817488       -0.9013214706
 H        -0.0611721499       -0.7124817710        1.7436466493
 H         1.2396143176       -0.6832191691        0.4657675915
 H         0.7200701120       -2.1823114092        1.1378508126
 H         0.1736560164       -2.9886266678       -1.3844511143
 H        -0.3521984962       -1.7826092515       -2.4740713492
 H         1.2922838558       -1.5966264097       -1.5098559887
 H        -1.6320204406        3.3550375469        0.5661751397
 H        -2.6906533604        2.3577872669       -0.4328827359
 H        -1.5610494011        4.7638606346        4.0969701210
 H        -2.8671614459        3.9943315200        4.7982696598
 H        -2.8759812444        4.4581309584        1.8690688238
 H        -4.1782357734        4.3952954772        2.9689700978
 H        -4.4109536101        3.7674813167        1.4317266357
 H        -3.9710609767        2.3257241609        4.5431051636
 H        -5.0474741618        1.7996523383        3.1476047357
 H        -3.7970607208        0.6280961853        3.6677168144
 H        -0.6831455938        2.5977857016        5.8644334771
 H        -1.4129113509        3.9415363796        6.7373027309
 H         1.8719404959        3.5880061380        3.8914909666
 H         3.5359963917        3.8789095396        4.1129738846
 H         2.0511643341        6.3490951511        6.0590436457
 H         3.5401859639        5.2975548951        6.3454536291
 H         2.3053789079        5.7651758454        7.6042067823
 H         0.6537358944        2.7782704548        7.8574737712
 H         2.0219731922        3.5465495309        8.5782425873
 H         0.4390815175        4.3228216879        8.3214758908
 H         2.8642911179        0.9688243945        4.3689209357
 H         2.9526976699        1.8044161067        2.7514763914
 H         6.2073765418        1.4039747139        1.8721150372
 H         6.7419789544       -0.2095466499        1.3741234222
 H         7.4649652377       -0.3732994243        3.8238039641
 H         7.1242602738        0.3267502948        5.3732876585
 H         7.3979740429        1.2724611630        3.9527250242
 H         3.8239839430       -1.0088503412        5.0870629916
 H         5.3486455454       -1.2144481343        5.6582067088
 H         4.5898373814        0.0926961459        6.2174022217
 H         4.7095445186       -0.3817064489       -0.1460535924
 H         5.9959608342        0.7043733508       -0.6957488868
 H         3.4214072584        3.1438530624       -3.8452998097
 H         4.7540278874        2.1007015791       -4.4383348671
 H         2.2174800009        3.2344181257       -1.2467079666
 H         3.0611953931        4.3674299822       -2.2118100170
 H         3.3550713859        4.3014948483       -0.5290204453
 H         5.4933664781        3.9070536728       -2.4303182668
 H         5.7812145104        4.0119191393       -0.7210128253
 H         6.4951974883        2.7108137662       -1.6693097815
 H         2.9614429506        1.0098007385       -5.7251331012
 H         2.9292357266        0.0837808347       -4.0814582585
 H        -3.0770312925        1.6531496619       -5.4542566106
 H        -2.4230122042        1.6734505822       -3.8215822141
 H        -1.6915406997        2.7162464534       -5.0994542758
 H        -0.6303766148        1.3634839069       -7.4018606485
 H         1.1281595461        1.7226705512       -7.3946136116
 H         0.0212432376        2.7608226313       -6.4333406211
 H        -0.0489013352       -1.2490126352       -6.0431667632
 H         1.5347873768       -0.6504008726       -6.7855787661
 H         1.5110098622       -1.0154167727       -5.1193716656
 Na       -2.8233048484       -1.2085896130       -3.0978517586
