155

 C        -5.7045490592       -2.3656318863       -6.5658634489
 C        -5.4712199419       -2.0292299800       -5.0938935558
 C        -5.8896288585       -3.1012150985       -4.0076981846
 C        -4.6431964431       -4.1324367946       -3.5393239840
 C        -4.9728630431       -5.6796122115       -3.4599306104
 C        -6.3214454412       -2.3852864901       -2.6813307278
 C        -7.0948697255       -4.0156549417       -4.6113879501
 O        -4.8847511242       -1.0146302996       -4.7662804316
 O        -3.5298788817       -3.7200695045       -3.2956946077
 C        -3.7479909282       -6.4912473356       -2.8947588511
 C        -3.7874884629       -6.5976774901       -1.4229823684
 C        -2.4848273506       -6.7275578622       -0.5653043122
 C        -1.9016991297       -5.2366572720        0.0174765663
 C        -2.7185815304       -4.5217693069        1.1364078238
 O        -4.8503398114       -6.5402385766       -0.8473439729
 O        -0.9398165566       -4.8775501759       -0.5787042395
 C        -2.8148656103       -7.6108842593        0.6331605779
 C        -1.3521007665       -7.4253018339       -1.4367340372
 C        -2.1934770664       -3.0824780864        1.2532347460
 C        -2.2288937172       -2.2995235065       -0.0233828818
 C        -0.9608363448       -1.3609470172       -0.4043226319
 C        -1.3756971410        0.0293535937       -0.7254907436
 C        -0.6615309368        1.2023447391       -0.0559227774
 C         0.2339007776       -1.4603809987        0.6231046218
 C        -0.3653102839       -2.0809340184       -1.6249424629
 O        -3.1125819764       -2.3835651564       -0.8311463202
 O        -2.4040901326        0.2825852993       -1.3685500867
 C        -1.6333017383        2.3195722044        0.5447581345
 C        -2.6023991674        1.6527311879        1.6354923001
 C        -3.0862712321        2.3807393840        2.8899042830
 C        -1.8218932718        2.6476537072        3.7253529136
 C        -1.8679150302        3.3696257805        5.1398735295
 O        -2.9222606690        0.5030654070        1.4149781816
 O        -0.6982353271        2.3488511609        3.3335058710
 C        -3.6950812515        3.7908913146        2.4886773729
 C        -4.1492310428        1.5652549243        3.7461694662
 C        -0.5331804209        3.3192818143        5.8259233729
 C         0.2106610195        4.5781253673        6.0259285111
 C         1.4788817715        4.5497433574        6.7604737486
 C         2.2370037826        3.1916333601        6.2785572046
 C         2.6791670254        3.2096507539        4.7941199661
 C         2.4443068544        5.7813891376        6.4750753233
 C         1.3655353401        4.3388018099        8.2349389903
 O        -0.1660231693        5.5825109464        5.4081025229
 O         2.4430333936        2.2799278799        7.0193257773
 C         3.1231441362        1.7930514906        4.2609311500
 C         4.6114871067        1.7429022488        4.4246536806
 C         5.3665379270        0.4252803732        3.9030217145
 C         5.1044227021        0.2318757997        2.3403603354
 C         5.9459555043        0.9503357793        1.3588566347
 O         5.3076685670        2.6158380107        4.8279475572
 O         4.2307977737       -0.5815935168        2.0094200099
 C         6.8646219118        0.5838096311        4.2475649055
 C         4.7518807310       -0.8042458225        4.7014199353
 C         5.3426281166        0.9432360249       -0.0265212778
 C         4.1627986155        1.8818110823       -0.1901427028
 C         4.1623775303        2.7646039187       -1.5316511523
 C         4.1239375510        2.0291712575       -2.8528801271
 C         3.8165481385        2.7879356093       -4.1447994949
 C         3.0017086184        3.7495934927       -1.3843964881
 C         5.5125430336        3.5435558130       -1.3225197643
 O         3.4351922186        2.2761827298        0.7173757766
 O         4.4008933847        0.8415380343       -2.8637222018
 C         3.1865226563        1.8381089417       -5.2591625423
 C         1.7451398556        1.4150312634       -4.7556281931
 C         0.7182680905        0.5608577197       -5.7526549871
 C        -0.6693014476        0.5339754209       -4.9417594100
 C        -1.4281776897        1.7839473556       -4.6962452139
 O         1.2637875388        1.7869720362       -3.6626360400
 O        -1.0838609464       -0.5657808394       -4.4989885554
 C         0.4725531558        1.2398112329       -7.1518975013
 C         1.3318903921       -0.8298815156       -5.9882095205
 H        -5.0847272294       -1.6006479315       -7.0019660172
 H        -5.2971955372       -3.3468630613       -6.8127958967
 H        -6.7792443128       -2.2614173146       -6.9005834250
 H        -5.8270834425       -5.7706569218       -2.7566093149
 H        -5.4092209406       -6.0743893141       -4.3424038821
 H        -5.4448097716       -1.8066140573       -2.3451798336
 H        -6.5069009367       -3.0098603367       -1.8705809043
 H        -7.1787958187       -1.7593818984       -2.8508334770
 H        -7.4441011925       -4.7064409785       -3.8377701804
 H        -7.9207638812       -3.3259581187       -4.7995998272
 H        -6.6520102557       -4.5974131372       -5.4631974835
 H        -3.7365459892       -7.5051206065       -3.3102402192
 H        -2.9063613887       -6.0964521425       -3.3731929563
 H        -3.8328493004       -4.5344157666        0.9362520966
 H        -2.4524208484       -5.0882642762        2.0451035457
 H        -3.8500261884       -7.2793187146        1.0992503899
 H        -1.9639838031       -7.5455032749        1.4099949560
 H        -2.9949873011       -8.6913941726        0.5396609425
 H        -1.8777693148       -8.4363952079       -1.6101276100
 H        -1.1611809130       -6.9073584416       -2.3523064248
 H        -0.4573482369       -7.5330237330       -0.7034541528
 H        -1.2151266002       -3.1578545150        1.7528759893
 H        -2.8625909065       -2.6274380583        1.8939235503
 H         0.0459754861        0.8137670473        0.6515586961
 H        -0.0525037194        1.6447233508       -0.7996367445
 H        -0.0505937565       -1.4004025561        1.6503036418
 H         1.0759656371       -0.8448389505        0.4477796209
 H         0.5627529450       -2.5064506704        0.6499988131
 H         0.2018152926       -2.9562827105       -1.2343127055
 H        -1.1710577384       -2.4238400891       -2.2586063081
 H         0.2939234366       -1.3815270541       -2.2111076926
 H        -1.0821403984        3.3037975870        0.8200810657
 H        -2.2952203444        2.6993189971       -0.1536982784
 H        -2.2016651027        4.3647481973        4.9294032608
 H        -2.5538217676        2.8330236789        5.8376144925
 H        -3.0415641862        4.5032483089        1.8893822853
 H        -3.9550760937        4.3919559578        3.3564045801
 H        -4.5556677169        3.7998243160        1.8748458531
 H        -4.3957456118        2.2592420006        4.5691347280
 H        -5.1003443534        1.4322358531        3.2371829184
 H        -3.6688910546        0.5510190387        4.1233261512
 H         0.2440173720        2.6620822123        5.3493695313
 H        -0.6816781277        2.9336029678        6.7982423271
 H         1.8669781754        3.7268994025        4.2174314599
 H         3.4531236410        3.9866413006        4.7035157423
 H         2.8045755645        5.6770603573        5.4706467411
 H         3.2359732908        5.7563168785        7.2454448181
 H         1.8499373434        6.7134367230        6.4993931455
 H         1.1230787077        3.3046108366        8.5167880299
 H         2.2782819176        4.6855069132        8.7553405665
 H         0.5798068889        4.9150089622        8.6937328349
 H         2.7988311224        0.9098606909        4.8436761258
 H         2.8216599999        1.7775400694        3.2634833799
 H         6.4122450784        1.9220620464        1.7022418365
 H         6.8330048791        0.3532288751        1.3205617794
 H         7.5284527691       -0.1932481374        3.9278552993
 H         7.0650459234        0.7852726856        5.2955635664
 H         7.1954006070        1.4763002412        3.7474983288
 H         3.6792468137       -1.0078547409        4.3722524294
 H         5.2935601348       -1.7184267019        4.5793473508
 H         4.6876984043       -0.5694165541        5.7268437064
 H         4.8762021048       -0.0799659182       -0.2956742805
 H         6.0603781751        1.2502699266       -0.7829045450
 H         3.0913020500        3.6008826037       -3.9387642384
 H         4.6247633783        3.2951922586       -4.5670668235
 H         2.0731901596        3.2638578983       -1.5951590111
 H         3.0519727317        4.5044174325       -2.0993977622
 H         2.8529258106        4.2243973922       -0.4207734663
 H         5.4048552433        4.3696906761       -1.9851478529
 H         5.5040193174        3.8677911973       -0.2979059640
 H         6.3217389825        2.9326429730       -1.5619503343
 H         3.0141124399        2.2986024181       -6.2613335528
 H         3.6076098379        0.9386741608       -5.3648081887
 H        -0.7523409700        2.4795498003       -5.0164878984
 H        -2.3401217504        1.7709796383       -5.3033018701
 H        -1.6837684326        1.9200661973       -3.6247294128
 H        -0.5310625756        0.9339450191       -7.3773819345
 H         1.2540073319        0.9259451482       -7.8857202103
 H         0.4653958112        2.2922625657       -7.0779287039
 H         1.2024837047       -1.2053737383       -7.0511258492
 H         2.4126695748       -0.8824559015       -5.8380348179
 H         0.8100722685       -1.5756729748       -5.3673778446
 Na       -3.0248920456       -1.2980375110       -3.1699152096
