155

 C        -5.7044653533       -1.7582127827       -6.6145103757
 C        -4.9954074490       -2.0909531274       -5.3072421704
 C        -5.2982644504       -3.5163379244       -4.6407023898
 C        -3.8926188329       -4.2056738019       -4.4154440722
 C        -3.7309649335       -5.7345890382       -4.5024324767
 C        -6.0194044412       -3.3748432082       -3.2897650470
 C        -6.1821861537       -4.3718491648       -5.6774100442
 O        -4.3520911515       -1.1998194812       -4.7606370302
 O        -2.8721107134       -3.5722501605       -4.1967467812
 C        -2.7528524778       -6.1927559844       -3.2554678898
 C        -3.4818290110       -6.0994344875       -1.9697079445
 C        -2.8694002314       -6.6561439361       -0.5445266843
 C        -2.3404628810       -5.3945991124        0.1254339007
 C        -3.3161564037       -4.4315920271        0.9607385078
 O        -4.5158794916       -5.4612144001       -1.8113951531
 O        -1.2033800978       -5.0749627961       -0.0330657715
 C        -4.0512751250       -7.3467817676        0.1179951058
 C        -1.7800288875       -7.5535066315       -0.7830560925
 C        -2.6248064478       -3.1440872612        1.3731521665
 C        -2.2352664336       -2.3106372685        0.1172595563
 C        -0.8176255778       -1.5897135324       -0.0549916795
 C        -1.3256183789       -0.0621354338       -0.3569667012
 C        -0.4576629827        1.0669020560        0.2376099593
 C        -0.0230318766       -1.7259525886        1.2004667723
 C        -0.0184647482       -2.0151407856       -1.3341618702
 O        -3.0446807111       -2.3189239727       -0.8508814616
 O        -2.0495229308        0.1396962608       -1.2974422031
 C        -1.2937557034        2.0449814296        1.1834193777
 C        -2.3076381903        1.3226637095        2.1308307556
 C        -2.8605055578        2.0483435724        3.3828367856
 C        -1.6970004298        2.0132442502        4.5331492243
 C        -2.2489097145        2.4412472992        5.9788456673
 O        -2.6765887963        0.2035633135        1.7714467493
 O        -0.4721139274        1.9724840741        4.3374984167
 C        -3.3562178244        3.5088415862        3.0991064008
 C        -3.9434911733        1.0560136416        3.9736435951
 C        -1.1821073119        3.0685007670        6.8006458853
 C        -0.4235170296        4.2144202417        6.0726835145
 C         0.9943172551        4.5556655032        6.6837872708
 C         1.8404125173        3.2468016344        6.3039767019
 C         2.5744213663        3.3390051627        4.9035343006
 C         1.4615328197        5.8657511573        5.9998198795
 C         1.0036290694        4.6796461311        8.2544808944
 O        -0.8246307700        4.7613146828        5.0517970340
 O         1.9793444377        2.3286039199        7.0568843947
 C         3.1203820542        1.9419815336        4.5127168574
 C         4.5621730271        1.8852225585        4.0992815449
 C         5.0279956915        0.4343118808        3.4800409634
 C         4.9005416040        0.6572380203        1.9968884466
 C         5.6859503771        1.7825717845        1.4001480721
 O         5.3582172837        2.8062116934        4.2190904369
 O         4.2471507889       -0.1103756782        1.3407929608
 C         6.5459048010        0.3527976539        3.9533861319
 C         4.2755825138       -0.8903527552        3.9357685294
 C         5.1465374440        1.9910581390       -0.0562251218
 C         4.0664261989        3.1106556804       -0.1774713975
 C         3.9316274827        3.9286558447       -1.4964308632
 C         4.1886036180        2.8739540541       -2.7010067693
 C         3.2131113564        2.8482268274       -4.0262721882
 C         2.5894835828        4.7498991328       -1.5385146413
 C         5.1181380308        5.0035948746       -1.6113062052
 O         3.3436072038        3.4243569699        0.7424829331
 O         5.0366470328        2.0632619353       -2.6055750980
 C         3.1151606917        1.3934422144       -4.5758209280
 C         1.6392895676        0.9788004382       -4.4472769231
 C         0.9976166497       -0.0499323896       -5.4299437704
 C        -0.4953996444       -0.3371018490       -5.0066363557
 C        -1.5553205126        0.6058831828       -5.6242373581
 O         0.9192347650        1.5408105874       -3.7035978545
 O        -0.7142144964       -1.2158339646       -4.2117574416
 C         1.1427545529        0.4032210058       -6.8778095151
 C         1.7429326621       -1.3969127378       -5.1423269416
 H        -5.1071731711       -0.9083303839       -6.8951632794
 H        -5.7246987531       -2.5390954127       -7.3418500558
 H        -6.6559124637       -1.3322661538       -6.1853533509
 H        -4.6636603257       -6.2570395877       -4.3576486292
 H        -3.1468955869       -6.0365626791       -5.2738503612
 H        -5.4405658431       -2.6028316587       -2.6809175745
 H        -6.0415271273       -4.2545498917       -2.6955555564
 H        -7.0520084426       -2.9647891100       -3.2952745645
 H        -6.7673734137       -5.1075509890       -5.1997662608
 H        -6.8858168444       -3.7806275634       -6.1510482339
 H        -5.6684214195       -4.9132469880       -6.4730637644
 H        -2.3477933682       -7.1529624497       -3.3349584807
 H        -1.9777836204       -5.4582565973       -3.1867361652
 H        -4.3535456710       -4.2953438261        0.5892216460
 H        -3.5844462402       -5.0533905367        1.8392468630
 H        -4.9562809626       -6.7327468636        0.3951718764
 H        -3.8408631602       -7.8105139788        1.0862805169
 H        -4.6002822084       -8.1712141905       -0.3854213864
 H        -2.0573379017       -8.4935804648       -1.3682063465
 H        -0.8404846023       -7.2545509559       -1.4535584508
 H        -1.3393381418       -7.9335811721        0.1477111498
 H        -1.7800009357       -3.4330715334        2.0504503658
 H        -3.3523606054       -2.6084725604        1.9191407067
 H         0.2659965280        0.5990549461        0.8727983310
 H         0.1228868838        1.5924183663       -0.4558420121
 H        -0.6473496074       -1.4467534218        2.0462540932
 H         0.9153403595       -1.1689570125        1.1081053545
 H         0.1298599041       -2.7220633458        1.5766379236
 H         0.1567378191       -3.0740483565       -1.4629281725
 H        -0.5237527492       -1.8440544771       -2.2772874490
 H         0.8805917936       -1.4398977445       -1.2118886363
 H        -0.4913514998        2.5350667350        1.8129102740
 H        -1.8108203722        2.7904072460        0.6149085494
 H        -3.0762109304        3.1120564821        5.7072620051
 H        -2.6228158368        1.6034429938        6.4496142088
 H        -2.5607196734        4.2071890011        2.8384104146
 H        -3.7748356955        3.9628924614        3.9378006728
 H        -4.0463695559        3.6817698212        2.3645099036
 H        -4.5612655410        1.4491392209        4.7942824614
 H        -4.7609287163        0.7045455501        3.3515839397
 H        -3.3427443031        0.1220709005        4.2627532845
 H        -0.4355314240        2.3967734391        7.1802029631
 H        -1.6188576729        3.5504048395        7.6628647186
 H         1.9450390482        3.7997368355        4.0975123886
 H         3.4449899156        3.9995640593        5.1593875504
 H         1.5175843193        5.6110595131        4.9120554904
 H         2.5399994047        6.2017939728        6.3161050580
 H         0.8425099509        6.6587305835        6.0031749940
 H         0.2838339289        3.9795815625        8.6877633404
 H         2.0152182053        4.5605144104        8.5824562729
 H         0.6401631914        5.6507870273        8.5342018876
 H         3.1287502467        1.3817887566        5.4447511151
 H         2.6647222268        1.2855217814        3.7833707865
 H         5.7804116981        2.7253328998        1.8658309125
 H         6.7155380348        1.3972829175        1.2225744882
 H         6.7733096632       -0.6492088651        4.2932635343
 H         6.6346911800        1.0939756083        4.7409559448
 H         7.2570009005        0.5624230181        3.1553203628
 H         3.3099318190       -0.9973113778        3.4929393851
 H         4.8677559387       -1.6580028441        3.6705627881
 H         4.2494584698       -0.7906779610        4.9897936901
 H         4.6234167848        1.0473247828       -0.4284284389
 H         5.9305119307        2.1064419843       -0.8328160298
 H         2.2103987038        3.1695398009       -3.8842810651
 H         3.8186108804        3.4983701913       -4.6143885873
 H         1.8160131808        4.1302852706       -1.9912731514
 H         2.6938580007        5.5790645755       -2.2055094725
 H         2.2251698675        5.1596327091       -0.5513808686
 H         4.7129259823        5.7040101162       -2.3589096494
 H         5.1621006341        5.4369603674       -0.6055866899
 H         6.0136159564        4.4953874080       -1.8887898847
 H         3.4613571663        1.3176250447       -5.6761174841
 H         3.7098301683        0.7600991771       -4.0174118163
 H        -1.1341945566        1.5486105963       -5.7326911158
 H        -1.9281897280        0.2398246393       -6.6129196939
 H        -2.4893340591        0.6309453604       -5.0096086806
 H         0.8300327350       -0.4056150704       -7.5564482343
 H         2.1662975559        0.8194997774       -7.0346457627
 H         0.5300980136        1.2578577224       -7.1572672297
 H         1.0532550192       -2.2298169599       -5.1941856743
 H         2.5981691821       -1.5384707575       -5.7708626077
 H         2.1391569590       -1.4377553603       -4.1479818590
 Na       -2.7318970388       -1.3984835861       -3.0424361233
