155

 C        -4.5419954425       -1.8931442124       -6.9385990104
 C        -4.1671213266       -2.1133986525       -5.4763906785
 C        -4.7386695465       -3.2678182385       -4.7619163452
 C        -3.6510620175       -4.3258583826       -4.3411079219
 C        -3.9086534079       -5.8125070217       -4.2988668125
 C        -5.0674028268       -2.7526652382       -3.3432365274
 C        -5.9739140866       -3.9797777085       -5.2700731000
 O        -3.3391402814       -1.3310048449       -4.9878410855
 O        -2.5743559292       -3.8566517288       -4.0192783036
 C        -3.1673239314       -6.5501535674       -3.1468943971
 C        -4.0374823753       -6.4895484211       -1.8182830036
 C        -3.4411461831       -7.0154896442       -0.5613088721
 C        -2.4771346793       -5.7830042930        0.1571471720
 C        -3.2001001189       -4.7756174937        1.0184784505
 O        -5.1253781341       -5.8534401195       -1.7497506340
 O        -1.2661582093       -5.7697220733       -0.0566595784
 C        -4.4829341503       -7.3049239875        0.6401097545
 C        -2.4337938559       -8.1689210880       -0.6708023901
 C        -2.3979068900       -3.5694376655        1.3199218715
 C        -1.7104445587       -2.8786048580        0.1088067870
 C        -0.3926633246       -1.9777758029        0.3509840389
 C        -0.9027431320       -0.4276206886       -0.0874128597
 C        -0.5490450038        0.7695554956        0.7551547352
 C         0.0099685999       -1.9869474053        1.8497952558
 C         0.7519246672       -2.3553463851       -0.6498658933
 O        -2.1638082361       -3.0806370505       -0.9767285652
 O        -1.4832502229       -0.2523762149       -1.1409653719
 C        -0.9822701538        0.8554717681        2.2648585071
 C        -2.4352294847        0.2300683646        2.4293721534
 C        -3.3656516485        1.0517016259        3.3824130341
 C        -2.6463257962        1.2797429387        4.7171004425
 C        -3.2316076191        2.2180653794        5.7381779803
 O        -2.7689724645       -0.6342381698        1.6308972212
 O        -1.7298639142        0.5408163297        4.9741954188
 C        -3.6227314448        2.3962072124        2.6291945342
 C        -4.7365757915        0.3057211925        3.5836772397
 C        -2.2245403063        2.8443180662        6.6928875691
 C        -1.0329549738        3.4456635887        5.8874183918
 C         0.1077642878        4.2049338033        6.6832267626
 C         1.2810429135        3.2586358608        6.4055379276
 C         2.2098051142        3.4567046650        5.2745114734
 C         0.1373560228        5.6693429297        6.0921578544
 C        -0.1055571155        4.1990663061        8.1949956074
 O        -1.0630505704        3.3186007554        4.6583405500
 O         1.6324648653        2.4465343929        7.2619170588
 C         2.6011563911        2.1488776080        4.4322601810
 C         3.9097002139        2.2169017070        3.7458337713
 C         4.5593803537        0.9501458066        3.0026248186
 C         4.5556577839        1.2779050630        1.4384239042
 C         5.6227295896        2.2862315133        0.9376779350
 O         4.5754698691        3.2705272975        3.7099439804
 O         3.7856969032        0.6160448550        0.7382496859
 C         5.9649447651        0.7763166990        3.6491168218
 C         3.6454215202       -0.2553565727        3.1641798733
 C         5.4714901707        2.5981275662       -0.5513301006
 C         4.4632017924        3.7182640205       -0.6702614077
 C         4.6726446604        4.8649643225       -1.8191218338
 C         4.2988607871        4.0742283937       -3.0934243067
 C         2.8321265951        3.7886823192       -3.3449016734
 C         3.6741206484        5.9460627337       -1.3925039003
 C         6.0804913005        5.5141338789       -1.8997983097
 O         3.6489880413        3.9709658320        0.2167730128
 O         5.1856990758        3.6441393423       -3.8422031763
 C         2.6908845088        3.1645817888       -4.7066349085
 C         1.5237894885        2.2385342648       -4.8211301793
 C         1.8502510163        0.6580095839       -4.7987099035
 C         0.4103944412       -0.1306554308       -4.6238522571
 C        -0.5520488591        0.0968244903       -5.7477253944
 O         0.3536685458        2.5963260929       -4.6235450063
 O         0.1569574459       -0.8267144222       -3.6764526867
 C         2.4812443334        0.1190569821       -6.1101263427
 C         2.7349990973        0.3565338235       -3.4995579448
 H        -4.0820022501       -2.7390795797       -7.4828809277
 H        -5.6031997020       -1.9967287428       -7.0025433906
 H        -4.0546786103       -0.9365335767       -7.2775825450
 H        -4.9734704299       -5.9700532957       -4.2729037587
 H        -3.6125512789       -6.2532237407       -5.1643484381
 H        -4.2121884019       -2.1268023221       -3.0363598307
 H        -5.1975410974       -3.4936273892       -2.6135651029
 H        -5.9031531332       -2.0691084085       -3.2780919341
 H        -6.5748604944       -4.7070237626       -4.6698290883
 H        -6.6595107396       -3.1247889474       -5.4188309811
 H        -5.6728491246       -4.4977349777       -6.2252145962
 H        -2.9193864851       -7.5373094531       -3.4943003446
 H        -2.2505793529       -5.9796772266       -2.9767416335
 H        -4.0067597654       -4.4098968800        0.3594193017
 H        -3.4540854546       -5.1635077900        2.0717290858
 H        -5.3447399873       -6.7279780237        0.6978338696
 H        -3.9240748901       -7.3159976349        1.5425372903
 H        -4.8316522289       -8.3286737864        0.5614723909
 H        -3.0465913543       -8.9083778038       -1.1191341584
 H        -1.6164116393       -7.9684338412       -1.4229790646
 H        -2.1814747041       -8.3407730740        0.4226067597
 H        -1.6275615498       -3.8768012558        2.0443132779
 H        -2.9603677871       -2.8129389145        1.7567491083
 H         0.4877629323        0.9021469707        0.7143357838
 H        -0.8713000613        1.6351391618        0.2921745382
 H        -0.8584402322       -1.9494247018        2.4509550463
 H         0.8287845207       -1.3040201567        1.9521405933
 H         0.3780584602       -2.9788756176        1.9562660817
 H         0.9631864073       -3.4099957876       -0.8234914451
 H         0.5178114411       -2.1080301563       -1.7448069963
 H         1.6502225790       -1.7832748740       -0.3675036961
 H        -0.2558627775        0.5340278941        2.9663097747
 H        -1.0654422939        1.9758018102        2.5100613210
 H        -3.9327729971        3.0414297280        5.4403610014
 H        -3.8161206687        1.5122539674        6.2978375268
 H        -2.8666900445        3.1647400106        3.0396690337
 H        -4.7270177351        2.6546821889        2.8115068341
 H        -3.5102815972        2.2832728050        1.5174876244
 H        -5.4962158473        1.0107384865        3.9590126775
 H        -5.0287611910        0.0168972230        2.6122982710
 H        -4.5856005465       -0.4869920569        4.2036643342
 H        -1.9833511729        2.1047286077        7.4516928750
 H        -2.7385830538        3.6523973645        7.3185505534
 H         1.8896832079        4.3263171262        4.7389990832
 H         3.0855590707        3.8570826539        5.7868284509
 H         0.5573841380        5.8414040410        5.1649814102
 H         0.5719315747        6.4057604591        6.7757594297
 H        -1.0050757701        6.0217359562        6.0859580819
 H        -0.3174717430        3.2194106420        8.5891872768
 H         0.8133690189        4.5915665977        8.5902871562
 H        -0.9105116149        4.8558057796        8.4054722784
 H         2.4534190632        1.3400130122        5.1500373517
 H         1.6978807547        2.0700718870        3.7835617834
 H         5.5470510349        3.1543283540        1.5671898579
 H         6.5877537894        1.8788462249        1.2124339541
 H         5.8303717650        0.4018979400        4.6459298251
 H         6.4329972126        1.8131862156        3.8508110753
 H         6.7184255664        0.1783728558        3.1717200954
 H         2.6259854754       -0.1121119142        2.8255196930
 H         3.9186688101       -1.0882943401        2.4770693285
 H         3.5013348454       -0.6516709524        4.2454458523
 H         5.0627426750        1.7296174159       -0.9973102997
 H         6.3824666752        3.0301783159       -1.0735258515
 H         2.6579146765        3.1549342877       -2.4943801508
 H         2.2706114499        4.7653497475       -3.2083896842
 H         2.6841232526        5.6455892788       -1.3538793364
 H         3.8424754059        6.7108066334       -2.1284519572
 H         3.8602270237        6.4399548241       -0.4278778861
 H         6.0928561215        6.5478899514       -1.6252803790
 H         6.8756389792        5.1303982899       -1.2203780672
 H         6.5377256450        5.4619436697       -2.8783605923
 H         2.7491084096        3.8686629124       -5.5597729149
 H         3.7356903451        2.6028037610       -4.7958188395
 H        -0.0104735241        0.3358242022       -6.6358138474
 H        -1.2708661928       -0.6767222534       -6.0074132656
 H        -1.1806347759        0.9918381063       -5.5884347544
 H         2.3043463949       -0.9581236059       -6.1259877412
 H         3.5935350569        0.1670090209       -5.9486670994
 H         2.2522796036        0.5311741693       -7.0499224838
 H         2.5747882501       -0.7543850091       -3.3311508909
 H         3.7955318360        0.5961778959       -3.6292602020
 H         2.3134525730        0.8915717273       -2.6008000234
 Na       -1.8844819403       -1.7530629792       -2.9775155223
