155

 C        -4.5197566521       -1.3936202909       -5.8491110409
 C        -3.7767217293       -1.9319814907       -4.6603894031
 C        -4.3210137869       -3.1035937996       -3.8625724206
 C        -3.2458646460       -4.2492989906       -4.0356382514
 C        -3.6793528596       -5.7170153224       -4.2992173605
 C        -4.2646278241       -2.5425655901       -2.3355890270
 C        -5.7502110527       -3.6007660461       -4.2531094089
 O        -2.7684362090       -1.3453015998       -4.3340006026
 O        -2.0733076420       -4.1309179031       -3.6809718525
 C        -3.2561579918       -6.7553861509       -3.2384476140
 C        -3.9019457918       -6.4735794974       -1.8905755226
 C        -3.5696734644       -7.2574303339       -0.5659606307
 C        -2.4835056814       -6.3339254787        0.1728324510
 C        -2.7992895254       -4.7393009633        0.2001091230
 O        -4.7691553680       -5.5962069087       -1.8039516922
 O        -1.6031630904       -6.8443886629        0.7597377599
 C        -4.8969347536       -7.3247545132        0.3785374334
 C        -3.0597472307       -8.6758460219       -0.9877134903
 C        -1.7552723895       -3.9055394200        0.8369223823
 C        -0.8428560411       -3.0665553785       -0.0965956394
 C         0.0912156290       -1.9979775997        0.4525663426
 C        -0.5451955625       -0.6124617139       -0.0000150943
 C        -0.4461444313        0.7283551360        0.7497708317
 C         0.3770239378       -2.0200150880        2.0549349906
 C         1.4422731949       -1.9733430986       -0.2711904922
 O        -0.8099677905       -3.4320513004       -1.2502663516
 O        -1.2002384625       -0.6163853540       -1.0383111442
 C        -1.1663690264        0.7235924780        2.1086978339
 C        -2.5300489119       -0.0278893943        1.9839516987
 C        -3.7728679781        0.4965533707        2.6734527617
 C        -3.3067875953        0.4694039045        4.2530928049
 C        -4.1453413606        1.3273697614        5.2887265475
 O        -2.4777142822       -1.1538565855        1.5592005337
 O        -2.2164549413       -0.0585056631        4.4430073655
 C        -4.2991720001        1.8916818177        2.1417857989
 C        -5.0000225270       -0.5041709402        2.5412620488
 C        -3.1862414693        2.0135667569        6.3047465075
 C        -2.1515157497        2.8716244961        5.5278167455
 C        -0.8042020224        3.5122514562        6.2363323231
 C         0.3165583383        2.5509459124        5.7298229991
 C         1.4118355455        3.0141488051        4.7941529203
 C        -0.6135412248        4.9257639441        5.6573275088
 C        -1.0352542277        3.4875065476        7.7041206660
 O        -2.1557109936        2.9189964456        4.2587559921
 O         0.3425305776        1.4365730550        6.2671421508
 C         2.3372515748        1.8552663055        4.2898415735
 C         3.6267596297        2.2755398351        3.7068883950
 C         4.2105135460        1.3845593646        2.4172886189
 C         3.7226704425        2.0113452369        1.1130732326
 C         3.7640203892        3.5567946978        0.9337637449
 O         4.2343119769        3.3034105930        4.0449866564
 O         3.4957004655        1.2968077744        0.1354836803
 C         5.7280767432        1.4744069569        2.2448928800
 C         3.7594095183       -0.0917830367        2.4041243995
 C         4.0834736891        3.9861410502       -0.5179905271
 C         3.6990781001        5.3940372058       -0.9012362352
 C         4.5691962840        6.0443227948       -1.9671039406
 C         4.8257257887        4.9440854291       -3.0911544409
 C         3.5348684309        4.4142955529       -3.7921492151
 C         3.8838894993        7.2938784139       -2.6159515175
 C         5.9042170622        6.3496085062       -1.3068368323
 O         2.8492435517        6.1337777697       -0.3314321933
 O         5.8449126458        4.3349495134       -3.2081955875
 C         3.6568525324        2.9248904912       -3.9932307607
 C         2.5630132232        2.0851279255       -3.4567587035
 C         2.5634610674        0.5475048288       -3.9911583923
 C         1.2108683705       -0.1490242955       -3.8193086161
 C        -0.0277131194        0.6551146492       -4.0350503986
 O         1.8440290945        2.4031459716       -2.4891678145
 O         1.1322499646       -1.3006927875       -3.4628864282
 C         2.8786043849        0.3987647645       -5.5159401261
 C         3.7303523419       -0.0512109052       -3.1395390545
 H        -4.5596014741       -2.1467317622       -6.6245752006
 H        -5.5633881176       -1.2400442089       -5.4918121661
 H        -4.0178443438       -0.5144636144       -6.2560425343
 H        -4.7061613688       -5.7722688099       -4.4810075331
 H        -3.3036492004       -6.1785997233       -5.2385466604
 H        -3.2111153722       -2.2464654233       -1.9958798490
 H        -4.5783048670       -3.2401517550       -1.5553524466
 H        -4.9344208568       -1.6866207761       -2.3574147798
 H        -5.9533948382       -4.4173357532       -3.5786168848
 H        -6.5427675598       -2.8603745425       -4.2452803543
 H        -5.5590052505       -4.0949343877       -5.1945375591
 H        -3.5116297586       -7.7771253861       -3.5990231249
 H        -2.2094265520       -6.8529757491       -3.2937068959
 H        -3.0310758867       -4.4856017493       -0.8474640930
 H        -3.7674264707       -4.6923261763        0.7481779648
 H        -5.4544125435       -6.4924196580        0.2506380786
 H        -4.6354015361       -7.7469266858        1.2794634075
 H        -5.4005026713       -8.1512521302       -0.1075202883
 H        -3.9614801202       -9.1588697299       -1.4687340546
 H        -2.1870016032       -8.6309204475       -1.7977169856
 H        -2.6832183174       -9.1542420055       -0.0349179521
 H        -1.1162342742       -4.6326323690        1.4506897863
 H        -2.1828573248       -3.1322090516        1.5915226949
 H         0.5366239774        1.2145362007        0.9041544325
 H        -1.0856257096        1.3313875694        0.1384383013
 H        -0.4986451341       -2.2778390552        2.6084009166
 H         0.6334649575       -1.1452373347        2.5832813819
 H         1.0490476390       -2.8319283686        2.2639995262
 H         1.5001334723       -2.0571049505       -1.4192864783
 H         1.9165541875       -1.0009788522       -0.0763866235
 H         2.0960107731       -2.7356244259        0.1958090499
 H        -0.4678644507        0.1911647711        2.8445059315
 H        -1.3709747216        1.6981289119        2.4106867962
 H        -4.6168150546        2.0804730918        4.7171904651
 H        -4.9902118576        0.8285473792        5.7767656903
 H        -3.4608904201        2.6234718306        2.4510205761
 H        -5.2590334821        1.9934102066        2.7232088918
 H        -4.3879181871        1.6944459692        1.0623875269
 H        -5.6858051945       -0.3736838316        3.3764816758
 H        -5.4665388793       -0.3034939034        1.6142260260
 H        -4.6285530957       -1.4956609412        2.5903877615
 H        -2.5922465547        1.2104513597        6.7592607040
 H        -3.7871571868        2.5565331661        7.0717777642
 H         1.0305433900        3.5565653097        3.9182848891
 H         1.8714752321        3.8485626566        5.3707439842
 H        -0.6266075781        4.9699606307        4.6299679992
 H         0.3556801037        5.3088549013        6.1189815122
 H        -1.4730774317        5.4987991465        6.1099228901
 H        -0.7814141090        2.5464295724        8.2015797177
 H        -0.3844774814        4.2040437780        8.1775689231
 H        -2.0454397452        3.7794496153        8.0575745023
 H         2.5236801199        1.3145692415        5.1869958972
 H         1.7840280271        1.1515961473        3.6253571797
 H         2.9317136545        4.0744860021        1.2827359074
 H         4.6328609038        3.9378752376        1.5407181670
 H         6.2781954063        0.7290373749        2.8045121689
 H         6.0590470739        2.4537918166        2.4689095641
 H         5.8374324876        1.3643505184        1.1824460630
 H         2.6369338671       -0.0049847011        2.2025444567
 H         4.3098672243       -0.6656197574        1.7186933662
 H         3.8895074573       -0.5609450175        3.4510576480
 H         3.3628433266        3.5986802930       -1.2174813942
 H         5.0417348923        3.7026016112       -0.9371222075
 H         2.7182450340        4.7863520399       -3.1638467837
 H         3.3653499434        4.9667181650       -4.7303045796
 H         3.0973826095        6.8697734635       -3.3110559143
 H         4.5989316660        7.9396844879       -3.0543258323
 H         3.3776563399        7.8042083021       -1.8528905287
 H         5.8931384046        7.3863529723       -0.8430500049
 H         6.1485634814        5.7059351641       -0.5259212290
 H         6.7939067948        6.3991122234       -1.9109951749
 H         3.7569571076        2.6535340766       -5.1173804234
 H         4.6330276010        2.6808837750       -3.6459604745
 H         0.0733645126        1.5948918785       -4.4402289128
 H        -0.7336639948        0.1520029971       -4.7628534460
 H        -0.7067416236        0.8099216591       -3.2052557286
 H         3.7385193775        1.0333843663       -5.7910111758
 H         2.0725301634        0.6853967132       -6.1217649296
 H         3.3386186388       -0.6340805297       -5.6901839752
 H         3.9805922758       -1.0463169056       -3.2793642380
 H         4.6740072694        0.4673220479       -3.2579354389
 H         3.4215657500        0.0529300823       -2.1397167666
 Na       -0.9381085564       -1.9132053094       -3.0448821867
