155

 C        -3.3398873078       -1.4587362128       -6.7840691425
 C        -3.1516400151       -1.6609255772       -5.2776391019
 C        -3.8270605142       -2.8474667031       -4.6186677903
 C        -2.6739761266       -4.0636992491       -4.3206834509
 C        -3.1110805086       -5.4936452222       -4.5102372739
 C        -4.3871687543       -2.6256230643       -3.1868567150
 C        -4.9855622418       -3.3852104912       -5.4623508775
 O        -2.3642127991       -0.9018951829       -4.6641359956
 O        -1.5671794801       -3.8250818566       -3.9350344941
 C        -2.5392005956       -6.5591826245       -3.4241383941
 C        -2.7977834778       -6.0705898296       -1.9255548613
 C        -2.0272763212       -6.8934417405       -0.7272350527
 C        -1.0922470358       -5.9919904183        0.1465083124
 C        -1.6796160556       -4.6827050756        0.5944612504
 O        -3.5676052777       -5.1448336562       -1.6931080891
 O         0.0013696392       -6.3465997784        0.5337761128
 C        -3.2472116026       -7.3374979313        0.1911697368
 C        -1.1300096136       -8.1343599219       -1.2344795205
 C        -0.5984331182       -3.5820827932        0.9986346731
 C        -0.2797670377       -2.5505973640       -0.1722105643
 C         0.3123820008       -1.1997874785        0.1230660252
 C        -0.7843019808       -0.0908548625       -0.2696176811
 C        -0.9232000497        1.1401075236        0.5680474047
 C         0.5939533661       -1.0581532526        1.6605998497
 C         1.6596561271       -0.9965596723       -0.6524421543
 O        -0.1980066279       -2.9418671838       -1.3432947540
 O        -1.4267465052       -0.2256607103       -1.3229186518
 C        -1.9894666931        0.9304169609        1.6749363045
 C        -2.9837785367       -0.3077871076        1.4458878109
 C        -4.3594617184       -0.3373780867        2.2135778744
 C        -3.9870767575       -0.2547819622        3.8074833994
 C        -4.5306273013        1.0356205531        4.4592826342
 O        -2.5510529054       -1.3583719247        0.9206499441
 O        -3.3888074123       -1.0656023924        4.4290102357
 C        -5.2410936404        0.8435091515        1.8183148146
 C        -4.9611584415       -1.7852269229        2.1475678671
 C        -4.0157141441        1.1738840698        5.8638392675
 C        -2.8937771476        2.2446740377        6.0248055067
 C        -1.6784608698        2.0970989358        7.0768648863
 C        -0.4024864578        1.6667877745        6.3835510235
 C         0.2577346879        2.6752487699        5.4029237981
 C        -1.4705402516        3.5547721775        7.6327541637
 C        -1.9846641053        1.2073323699        8.2271769929
 O        -2.8803871643        3.2661668526        5.3147024642
 O         0.2504935560        0.7331292531        6.8165433986
 C         1.6702878462        3.0261634995        5.9056315825
 C         2.3954273357        3.7811401090        4.6855925116
 C         3.5264330339        3.2315292064        3.6706921901
 C         2.8319379873        2.7321538888        2.3772227219
 C         2.3990177017        3.7760757400        1.3679366811
 O         1.8644592852        4.8783446887        4.4505621147
 O         2.5525770127        1.4985980953        2.2397098626
 C         4.4168290777        4.4875440851        3.2941579769
 C         4.3142458177        2.1516065376        4.3972299267
 C         3.1835261090        3.3095049611        0.0741192458
 C         2.9941286691        4.3425415893       -1.0413294204
 C         4.2454450518        5.0274199630       -1.7002312563
 C         4.7463054733        4.1788553862       -2.9322092084
 C         3.8937723702        4.2390572915       -4.2786866350
 C         3.6794628625        6.4987814656       -1.9114872953
 C         5.4228885315        5.1387652438       -0.6488024185
 O         1.8683712446        4.6082010866       -1.3948991989
 O         5.9070112348        3.6883034564       -2.9015466617
 C         3.9202528012        2.9902192795       -5.0771201454
 C         3.3508588927        1.7499052161       -4.1804088400
 C         3.0650709834        0.2785683991       -4.7898153494
 C         1.5995970059       -0.0254837235       -4.4713450736
 C         0.5088750125        0.9749330759       -4.5007248273
 O         3.3337269308        1.9675747015       -2.9942807908
 O         1.2947631802       -1.1389433669       -4.0399179629
 C         3.2240717062        0.0285035694       -6.3107526417
 C         3.9528635423       -0.7152768636       -3.9717753343
 H        -4.3872828470       -1.2294147876       -6.9778791109
 H        -2.7767994540       -0.6080802570       -7.1262684083
 H        -3.2403291937       -2.4234672102       -7.2940379345
 H        -4.1107965788       -5.5664490161       -4.4420532060
 H        -2.7607717950       -5.7516740922       -5.4848896915
 H        -3.5748607031       -2.5643200173       -2.3968448329
 H        -5.0122296869       -3.5254920678       -3.0204186756
 H        -5.0993574768       -1.7978987335       -3.1891261730
 H        -5.6511998237       -3.9006401892       -4.7706026261
 H        -5.6180764868       -2.5879825610       -5.9312020674
 H        -4.6306153288       -3.9845584513       -6.2703088722
 H        -3.0632942441       -7.4762878180       -3.4901782928
 H        -1.5082770290       -6.7498687592       -3.5978532353
 H        -2.3233620907       -4.1344845841       -0.1234551317
 H        -2.2514450265       -4.9359964227        1.4598235810
 H        -3.6347400506       -6.3652171979        0.7249192030
 H        -2.8368369657       -8.1121942445        0.8788043298
 H        -4.2075858750       -7.7757603791       -0.1143381202
 H        -1.4959938150       -8.8916257506       -1.9623555237
 H        -0.3261933799       -7.9167204796       -1.9257238005
 H        -0.7236181413       -8.6728901708       -0.3994081473
 H         0.3131539671       -4.1614713823        1.1264398929
 H        -1.0471209175       -3.0774626368        1.8484202740
 H        -0.0017019039        1.5135148106        0.9316828773
 H        -1.2709753008        1.9238170749       -0.0478408448
 H        -0.4185619205       -0.9961600320        2.0676168732
 H         1.0816175887       -0.1089824083        1.9029743230
 H         1.2452307487       -1.8634666064        2.0618707969
 H         1.5318608827       -1.2467626228       -1.7297219261
 H         1.9640650998        0.0169003684       -0.5119443091
 H         2.3322365869       -1.7141900262       -0.1014647315
 H        -1.4670704502        0.6592504000        2.5730966469
 H        -2.6474062454        1.8857458809        1.8202367108
 H        -4.0206990528        1.8193669817        3.8574886904
 H        -5.5935970661        1.1051790432        4.1994136676
 H        -4.8300990325        1.8380775844        1.8601793794
 H        -6.2498458236        0.9456232774        2.2203114526
 H        -5.5407929377        0.7520967713        0.7702218434
 H        -6.0220832890       -1.9643633365        2.4899191348
 H        -5.1222604405       -2.1952512484        1.1392094708
 H        -4.5289718888       -2.5122620622        2.7996797832
 H        -3.6531920515        0.1609646567        5.9892182042
 H        -4.7894889659        1.3458066617        6.5875842667
 H         0.4638293800        2.1675796535        4.4705540036
 H        -0.4929363736        3.4562928430        5.2524637860
 H        -1.4352414792        4.2239566205        6.8655118479
 H        -0.5575516665        3.7242170243        8.3375859238
 H        -2.3192714028        3.9013789016        8.1622664746
 H        -2.1853128095        0.2307212156        7.7049397340
 H        -1.1218553345        1.0819722645        8.9207000761
 H        -2.8435547407        1.5744529511        8.8168025296
 H         1.7477885086        3.8581838990        6.6126552723
 H         2.0805735330        2.1306989585        6.3502695348
 H         1.3273476202        3.5408876152        1.2127036462
 H         2.5668451945        4.8428590438        1.6720235830
 H         5.3140520856        4.5497256726        3.8971473116
 H         3.9304562559        5.5296606607        3.4348433811
 H         4.8055422295        4.4724709694        2.2966057276
 H         3.8619552625        1.2594559718        4.6589099686
 H         5.2533714710        1.9825874111        3.8755771035
 H         4.6705505233        2.5102312835        5.3718087693
 H         2.7618278858        2.2915138067       -0.1222603998
 H         4.2749144557        3.1769047973        0.1943737781
 H         2.8425260110        4.4290577917       -3.9373471395
 H         4.3194597957        5.0605358464       -4.8447086143
 H         3.1083467379        6.4477782071       -2.8711659551
 H         4.4506493150        7.2369713180       -2.0906435588
 H         3.0460654765        6.8942411299       -1.2026245063
 H         4.9715520772        5.5153886795        0.3188635884
 H         5.9485688017        4.2186636432       -0.6459792412
 H         6.1481724677        5.7722353233       -1.2069202262
 H         3.3910753447        3.1422540988       -5.9814176233
 H         4.9398573499        2.4953825325       -5.3027643759
 H        -0.3099530745        0.5343455542       -5.0220681794
 H         0.3496855853        1.3781033472       -3.5365597302
 H         0.7563674146        1.9200785054       -5.0433894339
 H         3.1515774799        0.9412678955       -6.9213586622
 H         2.5204704654       -0.6970002961       -6.6490346394
 H         4.2710964431       -0.3764328703       -6.4540148460
 H         3.4032678396       -1.6158510434       -3.7746408686
 H         4.8996383667       -0.9809275744       -4.4530351092
 H         4.0828729359       -0.1724110870       -3.0544564985
 Na       -0.8600178252       -1.7298366887       -3.0864384549
