155

 C        -3.7428493210       -2.6678137935       -7.0760805446
 C        -3.2431800195       -2.4217283415       -5.6710500836
 C        -3.4088932979       -3.5191610002       -4.5493380485
 C        -2.0512146685       -4.1815495618       -4.6148684019
 C        -1.8912061787       -5.7307855489       -4.7613820980
 C        -3.7452628459       -2.8820522325       -3.1705846657
 C        -4.6128253393       -4.4193126384       -5.0345500888
 O        -2.7021383998       -1.3321181407       -5.4784861453
 O        -1.0229936560       -3.4918085289       -4.6074068288
 C        -0.8511606627       -6.1918917404       -3.6568381278
 C        -1.5750754463       -6.3290044052       -2.2587802127
 C        -0.6043370623       -6.6903075962       -1.0181688119
 C        -0.2470319200       -5.3013208218       -0.2934538812
 C        -1.3659545704       -4.4954603200        0.4474665650
 O        -2.7790760731       -6.3579388672       -2.0620672692
 O         0.8998724488       -4.9442411924       -0.1448929369
 C        -1.4844931151       -7.5890538799       -0.0917313806
 C         0.7309702777       -7.3456091922       -1.4493160619
 C        -1.0024934450       -3.0780185553        0.7268618845
 C        -0.7085530446       -2.2411324076       -0.5082074607
 C         0.1530176818       -0.8199881536       -0.2772967820
 C        -0.6586549304        0.3391990219       -1.0319249053
 C        -0.8940533919        1.6411416597       -0.0895981880
 C         0.3878970277       -0.4317705523        1.1576444055
 C         1.5531954920       -0.9631481960       -1.0695318461
 O        -0.9673087788       -2.5160226819       -1.6618820113
 O        -1.0731688116        0.3878089247       -2.1990997368
 C        -2.1788633359        1.8691035245        0.8370680327
 C        -3.0069102969        0.4805181446        1.0385580267
 C        -3.9233042370        0.4157310259        2.3841130215
 C        -3.0193040065        0.0185273161        3.5787982151
 C        -3.6673231866       -0.8313715787        4.7472035478
 O        -2.8968123911       -0.4782644911        0.3317964431
 O        -1.8292770049        0.3423896978        3.5774221312
 C        -4.6835406706        1.7790030521        2.7074321510
 C        -5.0658116862       -0.7283142154        2.0594127690
 C        -3.2976553993       -0.6030890333        6.2647510752
 C        -3.7338855073        0.8218908656        6.7992876986
 C        -2.8358641796        1.7299939988        7.7980202960
 C        -1.3785864875        1.6590543177        7.2727116354
 C        -0.9304095961        2.5458740239        6.1243799074
 C        -3.4206256870        3.1931837501        7.6961000466
 C        -2.9511396668        1.2174765657        9.2101925334
 O        -4.7007301900        1.3351123545        6.3412882199
 O        -0.6381014494        0.7565115908        7.6458850782
 C         0.4771038342        3.3929684515        6.4103397125
 C         0.9443252918        3.8901265153        5.0243731582
 C         2.4797482893        3.8531457753        4.7145937049
 C         2.7538474098        3.3889733939        3.2172648095
 C         2.9500189140        4.3041169959        2.0670650146
 O         0.2004537065        4.4666013500        4.3312258863
 O         2.8082299377        2.2235586837        2.9821233596
 C         2.9446351372        5.2403450311        4.8511876555
 C         3.2620560307        2.8290677228        5.5671629771
 C         3.5617110637        3.5462079171        0.7951292670
 C         3.2106250792        4.2175461393       -0.5437608508
 C         4.4128789872        4.8612470095       -1.4240418837
 C         4.5416745404        3.8806488732       -2.6759488124
 C         3.4984085865        3.6965113995       -3.7760897673
 C         3.9047456034        6.2898091453       -1.7866910128
 C         5.7726052152        4.8647035104       -0.6314378500
 O         2.0779437328        4.4063543280       -1.0114584498
 O         5.4550627108        3.0313483622       -2.4990651531
 C         3.8339086641        2.5934664142       -4.8287278202
 C         3.3072296347        1.2445881488       -4.3290733903
 C         3.1988088728        0.0274188795       -5.2049029452
 C         1.6780841165       -0.3588446946       -5.2059879261
 C         0.6229302654        0.5985410727       -5.8495702316
 O         2.8142971586        1.2076845243       -3.2174245414
 O         1.3011460974       -1.2196749071       -4.4580316074
 C         3.7497986597        0.1190135023       -6.6572120863
 C         3.9791286559       -1.1358682765       -4.5798810606
 H        -4.7988785670       -3.0018758096       -7.1142872452
 H        -3.5882421485       -1.8244335776       -7.6813820847
 H        -3.2490004318       -3.5916711706       -7.4560541176
 H        -2.7800301709       -6.3914506389       -4.7995003404
 H        -1.4954221864       -5.7699815991       -5.7844502607
 H        -3.3722559825       -1.8665470943       -3.1201048546
 H        -3.2388383682       -3.4451135043       -2.3126392698
 H        -4.8538969054       -2.7414282463       -3.1666852565
 H        -5.0064578739       -5.0911492868       -4.2613369923
 H        -5.4617394655       -3.7504664573       -5.2831356276
 H        -4.4256767426       -5.1111930054       -5.8985676012
 H        -0.3757655982       -7.1505415349       -3.8947344440
 H        -0.1244783218       -5.3940488016       -3.6852072482
 H        -2.3731373407       -4.5113749898       -0.1163154145
 H        -1.5583270694       -5.0315195706        1.4085074414
 H        -2.4587457084       -7.1527247381       -0.0264802741
 H        -0.8794591367       -7.8653190036        0.7596928737
 H        -1.7625721889       -8.5452096295       -0.5658330539
 H         0.4089878773       -8.3750255480       -1.5094511609
 H         1.0930733134       -6.9949847685       -2.3991286625
 H         1.4745181570       -7.0917673356       -0.6704151768
 H        -0.1228813669       -3.0398630760        1.3608711150
 H        -1.6889610901       -2.5556690841        1.3406308486
 H        -0.0369188824        1.8010348582        0.6187610476
 H        -0.8784648146        2.4977781577       -0.8263020510
 H        -0.4482710340       -0.5790306181        1.8971350312
 H         0.9270821563        0.5184756789        1.3510070848
 H         1.1823211018       -1.1017885450        1.6118441146
 H         1.3028508711       -1.1951526361       -2.0753257976
 H         2.2279896576       -0.0802510849       -1.0416737667
 H         2.0273993430       -1.8158206825       -0.5492013344
 H        -1.8576038796        2.1033333000        1.8598283355
 H        -2.9045626220        2.7318118110        0.5009927535
 H        -4.7138434140       -0.9211128734        4.6567698945
 H        -3.3060477135       -1.9002422243        4.5984198515
 H        -4.0037507751        2.5789056902        2.7484842705
 H        -5.0222141338        1.7625373397        3.7315979614
 H        -5.4942542701        2.0069555289        2.0399837956
 H        -5.8402658766       -0.7825252301        2.7954555744
 H        -5.3817000077       -0.6912968271        1.0545797560
 H        -4.6095807154       -1.7819999911        2.1007255538
 H        -2.2442798049       -0.6795894809        6.5065291581
 H        -3.9201359249       -1.3242412762        6.8348838000
 H        -0.6561932763        1.8733397211        5.3190337336
 H        -1.6714071641        3.3243766983        5.8387588695
 H        -3.6685479490        3.5375724339        6.6167995643
 H        -2.9533329327        3.9957624859        8.2379324947
 H        -4.3669890775        2.9871719917        8.2263621741
 H        -2.8393918191        0.1011961817        9.2235681251
 H        -2.1627464359        1.5528986418        9.8671265179
 H        -3.8802507474        1.6722523081        9.6079879631
 H         0.3470803375        4.2156192022        7.1182744375
 H         1.1183288632        2.6783539880        6.9008606657
 H         2.1218571403        4.8010239897        1.6940276037
 H         3.6809805145        5.1082433914        2.2866822514
 H         2.8402475728        5.7986205500        3.9409134044
 H         3.9803124824        5.1442129675        5.2323826108
 H         2.4641528907        5.6711953063        5.7188544442
 H         2.8752129238        1.8870604810        5.2447118701
 H         4.3426219519        2.8196539740        5.4137062704
 H         3.0069701092        3.0375933256        6.5257938624
 H         3.0989460783        2.5262255493        0.9665408764
 H         4.6261409974        3.3829407003        0.8497230202
 H         2.4701244340        3.4441297026       -3.4536481071
 H         3.3337832649        4.6454412232       -4.2816339198
 H         2.9241579372        6.1949614018       -2.3145049417
 H         4.5819379592        6.8279105533       -2.4319730367
 H         3.6853643596        6.8263835016       -0.8898547190
 H         5.6555786255        5.5208010480        0.2108909340
 H         6.0650280319        3.8309633916       -0.4768777928
 H         6.3680838754        5.4301120435       -1.2481398922
 H         3.4091969303        2.8975481883       -5.7289049440
 H         4.9746834689        2.5414677231       -4.9950338860
 H        -0.2747809736        0.6086298068       -5.1983750813
 H         0.9793396920        1.6332260255       -5.9856682138
 H         0.1893560110        0.3719493881       -6.8392392299
 H         3.1515941094        0.7449358504       -7.3270740190
 H         3.8419017404       -0.8038100510       -7.1369277339
 H         4.7869818214        0.5866433585       -6.6101843442
 H         3.6286081241       -2.0393685998       -5.0525529977
 H         5.0922895434       -1.0349191661       -4.7243204801
 H         3.8529701689       -1.2106139229       -3.5109847984
 Na       -1.0240845218       -1.3140127694       -3.5362017882
