155

 C        -4.3164093065       -2.5202742048       -6.9356241837
 C        -3.4239074578       -2.4703680440       -5.6952236339
 C        -3.4067487814       -3.7214753694       -4.7979554010
 C        -1.9053304351       -4.3178555104       -4.6562292135
 C        -1.6067055074       -5.8912905704       -4.7554302213
 C        -3.7033153808       -3.2975618359       -3.3413453437
 C        -4.4936108079       -4.6521318919       -5.2971895811
 O        -2.6114465381       -1.5522137601       -5.5674795939
 O        -0.9314213375       -3.6359329802       -4.5669560374
 C        -0.6673722320       -6.2888113443       -3.5894674735
 C        -1.3399223100       -6.3243143834       -2.2177521886
 C        -0.3222212409       -6.5696678781       -0.9966240986
 C        -0.1336256715       -5.1583764485       -0.2416996591
 C        -1.4835165069       -4.5062653271        0.3283926128
 O        -2.5098957017       -6.0882192138       -1.9792802832
 O         0.9751013778       -4.7143635564       -0.1746915863
 C        -1.1459907583       -7.5995232198       -0.0903991350
 C         1.0834172514       -7.2725506373       -1.2977746705
 C        -1.1358934218       -3.0071329807        0.7135988456
 C        -0.7574307595       -2.1771367904       -0.4489768789
 C         0.0946760834       -0.7681648842       -0.2669750661
 C        -0.8011481406        0.3660833284       -0.9710787013
 C        -0.9255671534        1.7639551336       -0.2043228234
 C         0.5218224816       -0.4097363461        1.1748138711
 C         1.4361863807       -0.7983584891       -1.1546187431
 O        -1.1409044959       -2.3885936493       -1.5873642000
 O        -1.2622619612        0.2434531705       -2.1100180932
 C        -1.7867572447        1.6457509422        1.0649382052
 C        -2.8337114750        0.4618633055        1.1483723895
 C        -3.9020261594        0.3211717095        2.2788467904
 C        -2.9431004730       -0.2244177540        3.3982088422
 C        -3.5750722973       -0.9731731522        4.5971411622
 O        -2.8691944216       -0.3120554458        0.2667538679
 O        -1.6954723892       -0.0746720606        3.2714110779
 C        -4.3524168362        1.6784157552        2.7999377681
 C        -5.0582595188       -0.5848355613        1.9461255748
 C        -3.0030183385       -0.3243859766        5.8673409740
 C        -3.7237068993        0.9030407387        6.4700910654
 C        -3.0872778768        1.6855372564        7.5740618529
 C        -1.5532808319        2.0182382593        7.3298083264
 C        -1.1837215149        2.8108927552        6.0914898461
 C        -3.9520074038        2.8781243494        7.9564661823
 C        -3.2237529320        0.6104976465        8.7654526916
 O        -4.8813889408        1.1118606770        6.1415116124
 O        -0.7295599208        1.5522494964        8.0713638613
 C         0.3782855005        2.6271940472        5.8342367401
 C         0.9402426649        3.7618583892        5.0497489142
 C         2.5883195337        3.9619307119        4.7329554979
 C         2.8337877366        3.2450821273        3.3635734918
 C         3.3227546167        4.0640102862        2.2261385152
 O         0.2387037166        4.5276665890        4.3893334114
 O         2.3352871822        2.1210890128        3.2030889286
 C         2.8475280707        5.5005961263        4.7222523920
 C         3.3004937726        3.2228598716        5.8799668578
 C         3.4266139541        3.3843482404        0.8408167766
 C         3.1894552256        4.3167307366       -0.3685134711
 C         4.3891608386        4.6996543156       -1.3760179514
 C         4.5546151312        3.6577867439       -2.4935967068
 C         3.6680084427        3.9345708353       -3.6434783978
 C         3.9312486507        6.1377368903       -1.9905775386
 C         5.7204710780        4.8079962388       -0.6218600418
 O         2.0541023060        4.7050561188       -0.6857729889
 O         5.4575758303        2.8051769436       -2.5291616779
 C         3.6535206341        2.8391742066       -4.7585892222
 C         3.2110772154        1.5116883207       -4.1063213695
 C         3.0842818485        0.1959483898       -5.0667029640
 C         1.5908710760       -0.2826998765       -5.0799049663
 C         0.6561416689        0.4236237953       -6.1263049093
 O         3.0770115968        1.3996365597       -2.9062632839
 O         1.1022546888       -1.0635414520       -4.2685801229
 C         3.6138681699        0.5463018478       -6.4500569591
 C         3.9328473397       -0.9123744616       -4.4010857063
 H        -5.3367171480       -2.1173332985       -6.8204505526
 H        -3.8508820380       -1.9373858079       -7.6935575582
 H        -4.5025763617       -3.5335980263       -7.2249234448
 H        -2.5580299515       -6.5637454369       -4.6691074008
 H        -1.0463096199       -6.1282844032       -5.7146630536
 H        -2.8776533466       -2.8096131356       -2.8668313643
 H        -3.9610635816       -4.1550819199       -2.6834153774
 H        -4.4515429327       -2.5050055273       -3.3658079277
 H        -4.7255089377       -5.4472030591       -4.6190152813
 H        -5.4347150900       -4.1885359190       -5.3535803278
 H        -4.1641227227       -5.2199641602       -6.2009549253
 H        -0.4132817378       -7.3277549542       -3.9855459137
 H         0.2010323010       -5.5871138454       -3.6077845897
 H        -2.1210047933       -4.4388766455       -0.6171249882
 H        -1.9899290820       -4.9906963107        1.1510789595
 H        -2.2098388442       -7.1359044976       -0.0744762603
 H        -0.8358673211       -7.4759528257        0.9707110871
 H        -1.0793046968       -8.6449741919       -0.5672506092
 H         0.9737527286       -8.0585489954       -1.9934377942
 H         1.7984680200       -6.4589282035       -1.3599019643
 H         1.3196568923       -7.8325897971       -0.3593459759
 H        -0.2732497732       -2.9189867427        1.3893177959
 H        -2.0126756757       -2.4893275113        1.1902585249
 H         0.0942114428        2.1932676414        0.0867212115
 H        -1.4264230044        2.4609253311       -0.8888502993
 H        -0.2805166342       -0.4734043825        1.8924610859
 H         0.8108304612        0.6148035581        1.0807329918
 H         1.2622367335       -0.9437457858        1.7308370246
 H         1.1488603177       -0.9514869333       -2.1749969693
 H         1.8372700521        0.2189125385       -1.2346125501
 H         2.1133027305       -1.4845150633       -0.6836915303
 H        -1.2218059761        1.7881468238        1.9491879030
 H        -2.5781563674        2.4975331599        1.0728422578
 H        -4.6216730727       -1.0234938963        4.5373250973
 H        -3.1745821821       -2.0231087789        4.6435731186
 H        -3.4851022241        2.3123059888        3.0800180729
 H        -5.0620730691        1.5612898989        3.6467875380
 H        -4.8772180550        2.2093794790        1.9486026419
 H        -5.6697888753       -0.8342844123        2.7944446681
 H        -5.7859569428        0.0304540004        1.3428389549
 H        -4.7714703203       -1.4039560591        1.1868328000
 H        -1.9398206579       -0.1237422079        5.7009034552
 H        -3.1893048093       -1.0776295120        6.6665916084
 H        -1.7403955575        2.6889495312        5.1535183997
 H        -1.3427926149        3.8902202712        6.3401661190
 H        -3.9145609578        3.5640997014        7.1565999331
 H        -3.5267630636        3.3522442572        8.8460850609
 H        -5.0431113176        2.5174382122        8.1776374693
 H        -2.2978169152       -0.0187697097        8.7172668856
 H        -3.2122369121        1.1773730959        9.6644109243
 H        -4.1139978399       -0.0805385767        8.7232980514
 H         0.8615064914        2.3285844438        6.7581711184
 H         0.5681152122        1.7880393126        5.1695262174
 H         2.7387186253        4.9327166887        2.1289606169
 H         4.3634197178        4.5123072523        2.3398777470
 H         2.0372838655        6.0150446236        4.2016151033
 H         3.7775935253        5.6308431043        4.2364010138
 H         2.9607820561        5.8788569956        5.7471404881
 H         3.1339539095        2.1921250083        5.5566056983
 H         4.3410020280        3.4808293071        6.0025188023
 H         2.8785026754        3.4057177086        6.8150419651
 H         2.5707553497        2.6879016644        0.8407344871
 H         4.3695140682        2.8763931781        0.8373237114
 H         2.6278459394        4.0499164875       -3.2742990702
 H         4.0267122155        4.8306226011       -4.0809347826
 H         2.9460222056        5.9077611671       -2.4277945718
 H         4.4840419891        6.5244986392       -2.8199481447
 H         3.8227817967        6.9302439831       -1.2257221679
 H         5.5280925462        5.4734013231        0.2418594398
 H         5.9833377588        3.7486370832       -0.3541470743
 H         6.4021519877        5.3169618852       -1.2582010631
 H         2.9431842528        3.0734822463       -5.5401307754
 H         4.7027204832        2.8734295204       -5.2488534515
 H        -0.3391782062        0.0644211161       -5.9254699943
 H         0.4063119731        1.5175455876       -5.8964412673
 H         0.8503966852        0.4000867044       -7.1710853345
 H         3.2313191313        1.5120904049       -6.8553721671
 H         3.5046445185       -0.2184321531       -7.1534956313
 H         4.7299295566        0.7310594668       -6.3542095967
 H         3.9306929809       -1.7886226164       -5.0505299806
 H         4.9643770592       -0.5256373011       -4.1513282605
 H         3.4830311895       -1.3202198571       -3.4759738574
 Na       -1.0409362047       -1.5171872918       -3.7904972442
