155

 C        -4.1445828181       -2.2315394149       -6.7853105747
 C        -3.2080365179       -2.7518883474       -5.6331458775
 C        -3.1053650482       -4.2564605417       -5.0991406587
 C        -1.6440332690       -4.6801643668       -4.6526286019
 C        -1.5231624927       -6.1890119683       -4.3221859986
 C        -4.0423771909       -4.3608904065       -3.8395458647
 C        -3.6851693531       -5.2253974332       -6.3122357408
 O        -2.7403470471       -1.8958345686       -4.9362456299
 O        -0.6936401755       -3.9559043436       -4.5814426448
 C        -0.4148512605       -6.5207147600       -3.3984904537
 C        -0.7567391675       -6.4599729151       -1.9394709971
 C         0.2905604161       -6.5110252336       -0.7852913662
 C         0.5398711770       -5.0916978579       -0.2660216731
 C        -0.6601834983       -4.5175504124        0.4840197225
 O        -1.9144090550       -6.3604960475       -1.5832125145
 O         1.4503208420       -4.3952527421       -0.7173343585
 C        -0.2240866422       -7.3709639160        0.3639153377
 C         1.5870977721       -7.1123155158       -1.3773431547
 C        -0.5564477058       -3.0693156504        0.7407513829
 C        -0.3620887671       -2.3320156261       -0.6104149160
 C         0.3964287609       -0.9798280382       -0.4695524722
 C        -0.5254685857        0.1782386627       -1.1357044187
 C        -0.6703935463        1.5609880623       -0.4154380406
 C         0.8322741318       -0.6212099638        0.9971853008
 C         1.6621491234       -0.9601931305       -1.4409771636
 O        -0.6630781387       -2.7945212220       -1.7106644544
 O        -1.0391261245        0.0564776333       -2.2401545920
 C        -1.8302294536        1.5204901182        0.6310995575
 C        -2.8501695135        0.3944658616        0.6205141884
 C        -4.0332156156        0.4776181480        1.6056749798
 C        -3.4977917783        0.2554929403        3.2177330117
 C        -4.2147867867       -0.7516216728        4.2560433690
 O        -2.6597031188       -0.5307773562       -0.0932369531
 O        -2.4707018302        0.8119003051        3.5962006000
 C        -4.8162052047        1.8192336974        1.5602940898
 C        -4.9650143729       -0.7647854460        1.3593192984
 C        -3.6841883005       -0.5689380511        5.6421337822
 C        -4.0590765379        0.7140394617        6.3756703083
 C        -3.3850040726        1.2434946718        7.7377306971
 C        -1.8579007518        1.8404366259        7.5322131073
 C        -1.4317434382        2.3571357890        6.1825193231
 C        -4.2805515414        2.4113925147        8.2887136299
 C        -3.3107982055        0.1176699158        8.7623426771
 O        -4.9110859412        1.4274935725        5.8467917010
 O        -1.1594691985        1.7833295815        8.5046186070
 C         0.0545343153        2.7500779751        6.3067955839
 C         0.4994310857        3.8704449374        5.4258050795
 C         2.1217810360        3.9459732124        4.8415630274
 C         2.3782808357        3.2834779689        3.4710415250
 C         2.5038665579        4.2563541302        2.2476844635
 O        -0.1234956477        4.9129607637        5.1888215354
 O         2.4505863135        2.0525593894        3.3362362284
 C         2.5364756725        5.4098071485        4.8268876272
 C         2.9915790493        3.1677416043        5.8289463752
 C         2.6732323035        3.4257709859        0.9361557194
 C         2.9441375711        4.2857714789       -0.4159929062
 C         4.4341536232        4.6482390531       -0.7794819930
 C         4.6991162026        3.9128046729       -2.2479798459
 C         3.8732223612        4.4649785752       -3.4191804471
 C         4.4132346842        6.1724657832       -1.0508156402
 C         5.4595943177        4.0567447595        0.2279787217
 O         2.0565142265        4.5535069746       -1.2463095666
 O         5.4111118922        2.9759815942       -2.3069761049
 C         3.7156763146        3.4113245204       -4.5028459488
 C         2.7704378917        2.2786015947       -4.2548330332
 C         2.9423315933        0.8610941702       -5.1251548301
 C         1.5676606400        0.1913503068       -5.0429040899
 C         0.3246957442        0.9835492535       -5.6270240716
 O         1.9582799461        2.2560937446       -3.3598580951
 O         1.3042765970       -0.8072415454       -4.3881319688
 C         3.3144651247        1.0310935200       -6.6128180791
 C         4.1540090028        0.0255206206       -4.4363873471
 H        -3.5135508757       -1.9229612715       -7.6473510990
 H        -4.7121111350       -3.0354481292       -7.1797166513
 H        -4.8132825976       -1.4079828286       -6.5202209538
 H        -2.5277936772       -6.7348107685       -4.0762669490
 H        -1.2448556534       -6.6390321097       -5.3327711362
 H        -4.4263092282       -3.3906393763       -3.5705437159
 H        -3.5640198630       -4.6889202221       -2.9100733672
 H        -4.9228399557       -4.9643633304       -3.9631059946
 H        -3.3657213761       -6.2653664508       -6.2503494228
 H        -4.7677298759       -5.2540838626       -6.2895072963
 H        -3.2878529583       -4.9625306784       -7.3199267153
 H         0.0264098909       -7.5432398142       -3.6224883681
 H         0.5158828260       -5.9102897172       -3.6564600062
 H        -1.5705382174       -4.7601987716       -0.0323691875
 H        -0.8058621348       -5.1684597007        1.3934017210
 H        -1.2966680153       -7.1797116252        0.7500396327
 H         0.5555582341       -7.2395296991        1.1816966599
 H        -0.3095934226       -8.4722171276        0.1645987599
 H         1.3723102178       -8.0815446769       -1.9139460741
 H         2.0976166165       -6.4194017436       -2.0376913539
 H         2.2988118513       -7.2984125805       -0.4963822546
 H         0.1978878728       -2.8358054755        1.4917869088
 H        -1.4062066533       -2.5088323865        1.1599698083
 H         0.2623396342        1.8127429742        0.0584585951
 H        -0.9777269517        2.3246734076       -1.2016128191
 H         0.0616769829       -0.4338534757        1.7289119786
 H         1.3852950907        0.2581522705        0.7853763914
 H         1.4269258924       -1.3781049968        1.4637656241
 H         1.3794239821       -1.6241703238       -2.2665028887
 H         1.7585396851        0.0954366888       -1.7142202795
 H         2.5105549239       -1.4690961391       -0.9765103928
 H        -1.3166597194        1.4848139839        1.6353055877
 H        -2.4511332838        2.4421844818        0.5896013095
 H        -5.3006475033       -0.5403831376        4.1703977668
 H        -4.0442800124       -1.7584720119        3.8796420796
 H        -4.0477944531        2.4579267613        2.0189476606
 H        -5.6895468825        1.7132901412        2.1828380522
 H        -4.8795870910        2.0508005323        0.4826818320
 H        -5.7104216820       -0.7956239499        2.1830948360
 H        -5.3449051053       -0.6023555902        0.3134455780
 H        -4.2872036102       -1.6722281989        1.3836011278
 H        -2.5824564727       -0.7426884230        5.6355381263
 H        -3.9560792053       -1.4897544131        6.2059465319
 H        -1.6391046046        1.6114368913        5.4054342536
 H        -1.9810695066        3.3115660226        5.9843901462
 H        -4.6021618925        2.9154526633        7.4533896326
 H        -3.6835148549        3.1096511883        8.9274304692
 H        -5.1267944166        2.0321497884        8.9653446476
 H        -2.5821131011       -0.5798647703        8.3391979854
 H        -2.9348440178        0.3398300364        9.7220869317
 H        -4.2673390574       -0.3235560063        9.0209283538
 H         0.1636562892        3.1060691782        7.3459028893
 H         0.6784001148        1.8511655989        6.3266427795
 H         1.5284126029        4.8582450869        2.3190400549
 H         3.3055398604        4.9691425771        2.3551304193
 H         2.0349004710        6.0027055260        4.0218005489
 H         3.5856834189        5.5401016343        4.6286972852
 H         2.3303582559        5.9551866586        5.7661632829
 H         2.6404414020        2.0749124388        5.9171291848
 H         4.0895362470        3.1749811995        5.6145961671
 H         2.9843357835        3.5892533988        6.8458514852
 H         1.7164105606        2.9254377749        0.9096636446
 H         3.4579972349        2.6836990044        1.1289509417
 H         3.0331144717        4.7795300881       -2.8989008333
 H         4.3405842479        5.3810822665       -3.8815191934
 H         3.6906451154        6.4046643109       -1.8264765942
 H         5.3341271285        6.5798915742       -1.4115095181
 H         4.2519709834        6.7072779590       -0.1389125242
 H         5.2593409957        3.1028422354        0.8142801710
 H         6.3742549461        3.6743674443       -0.3433459804
 H         5.8465205148        4.7799995155        0.9371117543
 H         3.4066760624        3.9134176680       -5.4669489604
 H         4.7514145475        3.0443313557       -4.7110357931
 H        -0.3445943874        0.2821719677       -6.0063871028
 H        -0.1269215777        1.5787359713       -4.7870187480
 H         0.4418407560        1.7555659166       -6.3781402806
 H         2.4136034935        1.3395208493       -7.1315954596
 H         3.6814128753        0.1863099486       -7.0928808690
 H         4.0450287906        1.8930777397       -6.7192890811
 H         3.8956817483       -0.9908693003       -4.3578397928
 H         5.0011592694        0.1559119598       -5.1306373076
 H         4.4892483429        0.3153543721       -3.4658768935
 Na       -0.7769693397       -1.7778002723       -3.9106441974
