155

 C        -3.7834950915       -2.5286285863       -6.7559293836
 C        -2.7846052136       -2.7030655608       -5.6703230819
 C        -2.6434181449       -4.2327959634       -5.1717820760
 C        -1.2059722398       -4.7183408863       -4.9137731756
 C        -1.1315558925       -6.1963681753       -4.4305434999
 C        -3.4037255744       -4.2811878265       -3.7595485073
 C        -3.4725967653       -5.2076454383       -6.0411352755
 O        -2.0463839732       -1.8125777405       -5.2082808172
 O        -0.2922892909       -3.9399290864       -5.1244011311
 C        -0.0110114669       -6.7232321838       -3.5040735455
 C        -0.4490605998       -6.8138142787       -1.9092130822
 C         0.6590022696       -6.9280998864       -0.8118944193
 C         0.7639001184       -5.4081246719       -0.1948456403
 C        -0.4944543447       -4.7336612353        0.3257796445
 O        -1.6106235264       -6.8833304805       -1.6992488306
 O         1.8398632093       -4.9567500901        0.0560442249
 C         0.0399187793       -7.8384324241        0.3426351912
 C         1.9794293030       -7.4661291646       -1.3040416924
 C        -0.2324468374       -3.2290242099        0.7232519063
 C         0.0871083405       -2.4305322496       -0.5163353710
 C         0.4790545652       -0.9655172205       -0.3767433167
 C        -0.6565987118       -0.0279986327       -1.1914421065
 C        -0.8406755157        1.4603801382       -0.7035007522
 C         0.6365595792       -0.5595819064        1.1944723873
 C         1.8538515566       -0.7957635523       -1.0207126034
 O         0.0138439734       -2.9244214273       -1.6123820922
 O        -1.1118989320       -0.3388386231       -2.2634046010
 C        -2.1681845508        1.6825635886        0.0579058290
 C        -2.9751650963        0.4303520546        0.5731363005
 C        -4.2085639257        0.4960836888        1.5138437797
 C        -3.7044945636        0.7260202157        2.9793781164
 C        -4.2114490066       -0.2015552790        4.1936536976
 O        -2.4796938972       -0.6377773572        0.2830645687
 O        -2.9944650342        1.6418328863        3.2078644925
 C        -5.0883958500        1.6961861781        1.1957404341
 C        -4.9031824289       -0.9277335639        1.3562894402
 C        -3.4962452092       -0.0996632200        5.5245096191
 C        -3.8952033121        1.2047199386        6.2556192523
 C        -3.4072033136        1.4234870623        7.7368207107
 C        -1.8235700719        1.3795363460        7.4364139915
 C        -1.3103740551        2.7621714659        7.1130309377
 C        -3.9596995994        2.7576167403        8.2907630271
 C        -3.9451730972        0.3256150549        8.6973032831
 O        -4.6762023824        1.9879446952        5.7836222429
 O        -1.1662562214        0.3451805438        7.2993131009
 C        -0.1684122485        2.4941082421        6.1015803827
 C         0.2215481571        3.6797945033        5.2117565609
 C         1.8524573572        3.9356379289        4.9021374168
 C         1.9968523994        3.1013614132        3.4562402336
 C         2.3901735752        4.0018524930        2.3717040007
 O        -0.6048734669        4.3471422564        4.6588451803
 O         1.8601038808        1.9232042179        3.4480617569
 C         2.1530096296        5.3905156459        4.7980354266
 C         2.8096601031        3.1176191577        5.9025328972
 C         2.2999002436        3.4913358281        0.9466872209
 C         2.7066523142        4.5597889772        0.0079472025
 C         4.2513597620        4.6899531212       -0.4705261952
 C         4.0995560962        3.7755223423       -1.6809280380
 C         3.9457586103        4.3152944130       -3.0970459591
 C         4.4919095596        6.1586821003       -0.9270043861
 C         5.2957640122        4.1881263203        0.5147365584
 O         1.8789231710        5.1521172200       -0.6387409780
 O         4.0535432841        2.5957037826       -1.3838613763
 C         4.0757747585        3.3200198178       -4.2719116238
 C         2.7935157355        2.4530085266       -4.2924992458
 C         2.5959368023        1.3911207583       -5.4647463360
 C         1.3055026639        0.5990670717       -5.0749283071
 C        -0.1106547853        1.2067094178       -5.0598650808
 O         1.9140011230        2.7319785573       -3.5034937865
 O         1.4015341499       -0.4958890625       -4.5305166587
 C         2.6146204801        1.9619517974       -6.9312289949
 C         3.8176156983        0.4540397303       -5.3619292208
 H        -4.1035415385       -1.5059209369       -6.8025382364
 H        -3.1430667600       -2.6760668747       -7.6823925870
 H        -4.6770566825       -3.1090637264       -6.7550627753
 H        -2.1016373105       -6.4131961657       -4.0052334524
 H        -1.0226480399       -6.7274396334       -5.3927289234
 H        -4.3576736356       -3.6021938311       -3.8591550633
 H        -2.7322809605       -3.8028981764       -3.0376729158
 H        -3.7579389300       -5.2998055666       -3.4136565745
 H        -3.5310515293       -6.1941068395       -5.5836873865
 H        -4.4664446005       -4.9405213840       -6.1764816317
 H        -2.9666874585       -5.2518632643       -7.0630111860
 H         0.0081121670       -7.7819400488       -3.6590875963
 H         0.9115269813       -6.2404314411       -3.6373402465
 H        -1.4017689732       -4.8442249143       -0.2424746755
 H        -0.6493573863       -5.3717830622        1.2174615183
 H        -0.9143081397       -7.5420692184        0.5353228416
 H         0.4792671697       -7.7485714143        1.3002741516
 H         0.1173818341       -8.8246310754        0.0211999545
 H         2.0188877324       -8.3977582519       -1.7423256675
 H         2.6399560473       -6.7617190782       -1.8429039943
 H         2.5560085477       -7.6477998920       -0.3921000178
 H         0.4929417899       -3.2237480737        1.5950203835
 H        -1.2152714147       -2.6173169240        1.0348296580
 H         0.0067380803        1.8311731051       -0.1559976570
 H        -0.8997708299        2.1673052932       -1.4546798907
 H        -0.3925374357       -0.6328305271        1.5991148670
 H         0.8981355168        0.5024978320        1.2946804087
 H         1.4684787066       -1.0499316715        1.6856739589
 H         1.8546133813       -1.2032050747       -2.0437350323
 H         2.0626949705        0.2747640603       -1.0887705515
 H         2.5067400663       -1.1848000349       -0.2926753579
 H        -2.0725949123        2.3797472616        0.7885525457
 H        -2.8444885151        2.1594348125       -0.6845596704
 H        -5.2619523145        0.0549869690        4.3310213390
 H        -4.1532089742       -1.1628358342        3.6860343146
 H        -4.6287247785        2.4208224843        1.8450731990
 H        -6.0928417976        1.4827325015        1.4057682210
 H        -4.9983684227        1.7908053155        0.1611309346
 H        -5.9384948654       -0.8349459001        1.7249031607
 H        -4.9252351912       -1.0827053932        0.2413151969
 H        -4.2193062831       -1.5919345376        1.7100619368
 H        -2.4681066206       -0.0339603739        5.1774331452
 H        -3.5125598737       -0.9525486038        6.2031838977
 H        -2.0558333340        3.3611109269        6.6428716225
 H        -0.9817127010        3.1309390740        8.1177435091
 H        -3.4845635700        3.7311365619        7.9236659457
 H        -3.8410576066        2.7505503240        9.3516437174
 H        -4.9138655310        2.8147388763        8.0241901743
 H        -3.8551050612       -0.7121375697        8.2774143385
 H        -3.4283562009        0.3389795567        9.6145684063
 H        -5.0350642397        0.3027023904        8.8234914208
 H         0.6136428299        1.9877643121        6.6324383518
 H        -0.5728818399        1.7250301660        5.4201213822
 H         1.7408336351        4.9107140280        2.3393885044
 H         3.4660972035        4.3252089098        2.5544896432
 H         1.4695094854        5.9250334060        4.0873249668
 H         3.1017879012        5.6377299409        4.4741866571
 H         2.1083210855        5.9910055597        5.7586541424
 H         2.7554494778        2.1123671376        5.6337570233
 H         3.7931197546        3.3380627433        5.8253390689
 H         2.5341757780        3.0609806021        6.9693384718
 H         1.3309524485        3.2020534679        0.6006156673
 H         2.9970430405        2.6312507449        0.8482777841
 H         2.9947775241        4.7829053442       -3.0000502866
 H         4.5540978609        5.1941386935       -3.2325545411
 H         3.5594789957        6.6633454531       -1.2274110217
 H         5.2201329897        6.1526078557       -1.7290476204
 H         4.8496642822        6.8907382444       -0.1147009311
 H         4.9664826853        3.8774231205        1.4458377575
 H         5.9374212922        3.4316253815        0.1504551086
 H         6.0014637280        4.9585807748        0.8904902729
 H         4.0726727578        3.8551256033       -5.2052495901
 H         4.9521291960        2.6344942909       -4.2425824120
 H        -0.5383288403        0.7225874096       -5.9497096040
 H        -0.7174736172        0.8492659450       -4.1594883355
 H        -0.1195801430        2.2612142820       -5.2898494087
 H         1.7977352760        2.6709631152       -7.2497669423
 H         2.6832691410        1.0623741339       -7.5018594916
 H         3.5866865548        2.4652527426       -7.0203127207
 H         3.7039257713       -0.4707634894       -5.9738547731
 H         4.8026195609        0.9496241215       -5.5875722956
 H         3.7914030428        0.2273313042       -4.2388446149
 Na       -0.3957691561       -1.9015544350       -3.7315590962
