155

 C        -2.1900989225       -2.3528556655       -7.0768618424
 C        -1.6930586628       -2.8599195432       -5.6929631838
 C        -1.3072400975       -4.4060003389       -5.4012754136
 C         0.0618472415       -4.6176442710       -4.6623855068
 C         0.4608539317       -6.1115593179       -4.1311519274
 C        -2.4857035461       -4.7449271191       -4.3559707997
 C        -1.4466074352       -5.2718564659       -6.5975483072
 O        -1.5899700266       -2.0583213726       -4.8028803228
 O         0.8301331727       -3.7290777443       -4.2889607699
 C         1.2135970461       -5.9035499935       -2.8279900497
 C         0.5223767003       -6.6956717876       -1.7528389362
 C         1.3274999816       -7.2022096190       -0.5128139200
 C         1.8200893421       -5.7773672012        0.1535914174
 C         0.6165867417       -4.8874129926        0.5599070556
 O        -0.6446067943       -6.9812304869       -1.8268082678
 O         3.0046796212       -5.4687518064        0.3097912720
 C         0.3902451977       -8.1197159790        0.4138200268
 C         2.6193029756       -8.1470064497       -0.8034082306
 C         1.0141391059       -3.4547365914        0.8675970824
 C         0.8860227020       -2.5849941268       -0.2906946804
 C         1.3627169867       -1.1160070614       -0.1384530379
 C         0.0213060311       -0.1752944948       -0.3366898811
 C        -0.4419763559        0.7089060644        0.8641406581
 C         1.8921397511       -0.8192413328        1.3077965435
 C         2.2984144566       -0.6322655093       -1.1382177160
 O         0.1827731761       -2.9633061277       -1.2597906113
 O        -0.4812881545       -0.1138128722       -1.4584754085
 C        -1.9364892967        1.0137602250        0.8702263809
 C        -2.8133526730       -0.3381307236        0.9065470430
 C        -4.2495657924       -0.2602854274        1.2741852541
 C        -4.2875220141       -0.2864895800        2.8126126191
 C        -5.6044229864       -0.8000253089        3.5622525332
 O        -2.2489635878       -1.4218123210        0.8034258724
 O        -3.3754054218        0.1732866978        3.5141992859
 C        -4.8673183828        0.9783479085        0.6529857086
 C        -5.1059243905       -1.3924124958        0.6317880511
 C        -5.5680081754       -0.3290544895        5.1118479484
 C        -5.4092994724        1.2176189959        5.3385085595
 C        -4.4626244818        1.5994865681        6.6269358587
 C        -3.0151334590        1.8428274029        6.1439642833
 C        -2.8178871471        3.0173447099        5.0978739239
 C        -5.1579664383        2.8865077991        7.1722963579
 C        -4.4506656411        0.4933652445        7.7024676145
 O        -5.8619733263        2.0968448527        4.6458319677
 O        -2.0679070576        1.0907869925        6.3693537590
 C        -1.3695699813        2.8072485104        4.4739621889
 C        -0.2237537403        3.4855234975        5.1279938392
 C         1.3374746249        2.8268453736        4.7927897582
 C         1.4349881196        2.8321488119        3.2508034369
 C         1.7933414532        4.1239104708        2.4599390059
 O        -0.2383534989        4.5241367553        5.7183643428
 O         1.2164972129        1.7461720354        2.7360270810
 C         2.4088633373        3.6612252027        5.5097823944
 C         1.2889329043        1.4277809880        5.3656916768
 C         3.3185417247        4.0712059964        1.9656206027
 C         3.5228591303        5.1861994806        0.9593036255
 C         4.4598425424        5.0604946694       -0.4241307289
 C         3.6377348795        3.9618835889       -1.2411366668
 C         2.9139928711        4.4799620353       -2.5398758982
 C         4.5563845127        6.3896459059       -1.1099794801
 C         5.9036050192        4.5614337425        0.1116654400
 O         2.9198117275        6.1868008761        1.2103768836
 O         3.4543387223        2.8907369345       -0.7940415386
 C         1.8625640239        3.3587138298       -3.1023166492
 C         1.4215589323        3.6935861175       -4.5467389119
 C         1.1848324722        2.5242606354       -5.5656421373
 C         0.5196079435        1.2430855491       -4.9700040345
 C        -0.9484068902        1.3674279156       -4.6836363828
 O         1.3535512201        4.8522482857       -4.8783161571
 O         1.1844463543        0.2365603070       -4.7536892377
 C         0.2435847106        3.0425637258       -6.7806831844
 C         2.5833716094        1.9569819440       -6.0584331513
 H        -2.2277123608       -1.2834389557       -6.9865306804
 H        -1.5314551817       -2.4459864083       -7.9469645239
 H        -3.1911024960       -2.7653380497       -7.3298385314
 H        -0.3843455933       -6.7510888552       -4.0444036329
 H         1.1527897621       -6.5148054999       -4.8175446062
 H        -2.8983503257       -5.7016047224       -4.7089826909
 H        -3.0889423678       -3.9222081542       -4.2022865900
 H        -2.1256533982       -4.8361421328       -3.3409272486
 H        -1.0275807994       -6.2689976833       -6.4604464241
 H        -2.4659959271       -5.4860557343       -6.8410238650
 H        -0.8379019944       -4.8326470825       -7.4630296038
 H         2.1860760247       -6.1881484247       -3.0341778581
 H         1.2519077302       -4.8814347730       -2.5991053000
 H        -0.1483497628       -4.9819417756       -0.2186245046
 H         0.2329157102       -5.2921729613        1.4259413355
 H         0.1207873547       -7.5261047795        1.4329908885
 H         0.9458612685       -9.0723170606        0.7213395268
 H        -0.5095117650       -8.5273508924       -0.1657903235
 H         3.3326677135       -7.7322612392       -1.5424641252
 H         3.1007220952       -8.2911753363        0.1717087969
 H         2.1722966148       -9.0470572546       -1.3447353934
 H         2.0222630082       -3.2549460091        1.4157187389
 H         0.3837405192       -3.0615140589        1.7005083456
 H        -0.2171084542        0.2135550887        1.7462753689
 H         0.2025095260        1.5555936682        0.9681559313
 H         1.1437062640       -1.1773836798        2.0563638171
 H         1.8948800627        0.2314520020        1.6149558668
 H         2.8995225030       -1.2066423070        1.5175419629
 H         1.9829535537       -0.7053282918       -2.2108503800
 H         2.6624369158        0.3760341887       -1.0050369824
 H         3.1255819125       -1.3539951862       -1.1186380439
 H        -2.1472728846        1.5371131459        1.8317668673
 H        -2.1969452534        1.6414555523        0.0964158280
 H        -6.4152063174       -0.3183662062        3.0495748766
 H        -5.7455369634       -1.9334602888        3.6214809596
 H        -4.4271431429        1.9756606323        0.8962281985
 H        -5.8961053643        1.2707374540        0.9283096347
 H        -5.0523447663        0.9798784803       -0.4623210748
 H        -4.7852871425       -2.4001649394        0.7795317397
 H        -6.0830987478       -1.4106899977        1.0653845391
 H        -5.2623554497       -1.2483783053       -0.4746051416
 H        -4.8386972040       -0.8643280941        5.6958585578
 H        -6.5033787489       -0.6297144279        5.6518952126
 H        -3.6436709537        2.9442671472        4.4373641414
 H        -2.8518922470        4.0252337022        5.5610133843
 H        -6.1432467541        3.0759414919        6.7554607843
 H        -4.5316078797        3.6628965340        7.0384152813
 H        -5.1604272407        2.8261335239        8.3126092420
 H        -3.6686394599       -0.2684595947        7.4662180689
 H        -4.1580460903        0.9206218248        8.6471280038
 H        -5.4653903854        0.0909966856        7.7403174424
 H        -1.0669188868        1.7663130450        4.3521823277
 H        -1.3698213308        3.1730326285        3.4093987785
 H         1.0560497808        4.3099226758        1.6213546529
 H         1.6193025289        4.9659866554        3.1443573041
 H         1.9120842644        4.6582806165        5.6246334258
 H         3.2946510200        3.7163040852        4.9742269864
 H         2.4425789706        3.3073430539        6.5435590938
 H         0.8277975335        0.7821192309        4.6044172688
 H         2.3070594950        1.0638883409        5.3984838316
 H         0.7156907075        1.4837395165        6.3678657386
 H         3.5656903885        3.1284310691        1.3858756915
 H         3.9874892098        4.2153598631        2.8195715818
 H         2.4605926880        5.4525888647       -2.3681483878
 H         3.6533294327        4.7385509656       -3.2630645741
 H         3.6940534498        7.0503721814       -1.0100352166
 H         4.6181883825        6.2243724617       -2.1608080030
 H         5.4832437763        6.9382150359       -0.7744104313
 H         6.2394669764        3.7643309519       -0.5572962471
 H         6.5832960943        5.3784415604       -0.0581663144
 H         5.7786823439        4.3169086409        1.2188853302
 H         2.2798212218        2.3485866158       -2.9533312719
 H         0.9576330236        3.5609565318       -2.4244620919
 H        -1.5022649148        1.6505326742       -5.5498893681
 H        -1.2565795914        0.3661505875       -4.4167781599
 H        -1.2356491489        2.0480106934       -3.9113865681
 H        -0.7521181482        3.3303803404       -6.4396407286
 H         0.0679196035        2.3213670963       -7.5149410472
 H         0.7612995017        3.8731908720       -7.3408711706
 H         2.2975936265        1.0561208655       -6.6211168107
 H         3.0646120061        2.6655014484       -6.7882609543
 H         3.3062347821        1.7292227646       -5.2471558757
 Na        0.1775697873       -1.5605213601       -3.1526492098
