155

 C        -2.3593477385       -2.3862964934       -6.9002670335
 C        -1.6872305862       -2.7250558668       -5.5151756809
 C        -1.2367529475       -4.2451785303       -5.2870891287
 C         0.0977297455       -4.4027598071       -4.4699470951
 C         0.5641794528       -5.8803526740       -4.1967388081
 C        -2.4024196798       -5.0549888312       -4.6600329956
 C        -0.7793745551       -5.0458446568       -6.6035997561
 O        -1.6111914244       -1.7594041166       -4.7975748391
 O         0.8179698949       -3.4510564546       -4.2634853524
 C         1.3603685584       -5.9470581016       -2.9558728905
 C         0.5809413139       -6.7507510512       -1.8065142239
 C         1.4364734336       -7.1648300373       -0.5030130549
 C         1.8055017242       -5.6703856819        0.1953998770
 C         0.5890934388       -4.8457466185        0.7715323983
 O        -0.5445064952       -7.1125974872       -2.0738501750
 O         2.9121745832       -5.2339955552        0.1048203866
 C         0.4974262656       -8.0643793077        0.3683303725
 C         2.8047729758       -7.8247288738       -0.8578594956
 C         0.8996922413       -3.4265295078        1.0311474570
 C         1.0065322806       -2.6127816972       -0.2415513326
 C         1.5202209839       -1.1480752842       -0.1221819502
 C         0.2875851916       -0.2289509961       -0.4188758081
 C        -0.4297175056        0.5428740788        0.7841712039
 C         2.1446426609       -0.7441648594        1.2566729056
 C         2.7258644981       -0.9878559953       -1.2011020073
 O         0.7315378186       -3.0799535930       -1.3470243548
 O        -0.2283972285       -0.1627649636       -1.5172126582
 C        -1.9201364669        0.7113990612        0.4076712128
 C        -2.7198549445       -0.6231645560        0.8106800082
 C        -4.3216763951       -0.5266177148        1.2607039566
 C        -4.3978266831       -0.1839941385        2.7726018501
 C        -5.7215719150       -0.4968359802        3.5287788113
 O        -2.0759155080       -1.6391058165        0.6926230090
 O        -3.4836065197        0.1991008010        3.4686953579
 C        -5.0624313951        0.5988074323        0.6017098712
 C        -4.9109325875       -1.8854118773        0.9606576350
 C        -5.5050489057       -0.2352906899        5.0491997574
 C        -5.3215166600        1.3282827820        5.1978229092
 C        -4.4410711739        1.8018953446        6.3244997119
 C        -2.9619064540        1.8989133168        5.8510194209
 C        -2.7732226177        2.7377125972        4.5335251402
 C        -5.0709778965        3.1691557195        6.6847319121
 C        -4.5611503422        0.8760097690        7.6289877779
 O        -5.7927258300        2.1141328689        4.4013709863
 O        -2.0888756413        1.2785410936        6.3752680841
 C        -1.3358956692        2.6351486339        3.9735978015
 C        -0.3709701582        3.3027981605        4.9957017025
 C         1.1220469302        2.8352097155        4.9277737156
 C         1.6464364302        2.8868267367        3.4213349594
 C         1.7402856228        4.2096938020        2.7021003854
 O        -0.7696672674        4.0385363753        5.9008569971
 O         1.6857063491        1.8909685454        2.6908581893
 C         1.9479107329        3.7753806386        5.9053842603
 C         1.1970982114        1.3373517262        5.4426837056
 C         3.0905155124        4.2082226493        1.9993304926
 C         3.2285835287        5.2424878924        0.9414799820
 C         4.1861193983        4.8943831199       -0.2994595829
 C         3.3863855068        3.8179150202       -1.1536671076
 C         3.1122037800        4.1221988802       -2.6660484911
 C         4.5077149944        6.1915301649       -1.0635147344
 C         5.5019979085        4.3351467171        0.2453297430
 O         2.7218114913        6.3183724397        1.0523440718
 O         3.0526083749        2.7962408930       -0.6448817702
 C         1.9964734186        3.1263206323       -3.0678745864
 C         1.3385501280        3.6616264788       -4.3714632169
 C         1.0426374674        2.5877795571       -5.4907472839
 C         0.4675452908        1.4337941978       -4.6795754247
 C        -0.9805621392        1.5333962575       -4.1361682538
 O         1.0580353655        4.8707546742       -4.4245776342
 O         1.1652504175        0.4863154865       -4.2869673631
 C         0.1171645021        3.1861078185       -6.5420023119
 C         2.4018952029        2.0370603609       -6.0925749761
 H        -2.6341724129       -1.3506093331       -6.9040445822
 H        -1.6433401754       -2.4291928325       -7.7606539776
 H        -3.1462959274       -3.0826210259       -7.1561663729
 H        -0.2415346910       -6.5977387878       -4.0726670464
 H         1.1804859815       -6.1090364393       -5.0605896933
 H        -3.3224305474       -4.9585496777       -5.3176765815
 H        -2.6258204135       -4.5878186586       -3.6719191473
 H        -2.0349947415       -6.1320929919       -4.5134032877
 H        -0.5124733542       -6.0637592003       -6.3481397597
 H        -1.5913125767       -5.0738631388       -7.2722242180
 H         0.0904561653       -4.5444006322       -7.1573339953
 H         2.2103973031       -6.5493933137       -3.2020317388
 H         1.7955084897       -4.9705287245       -2.7515397390
 H        -0.2420509057       -4.9624979192        0.0585208088
 H         0.3982393303       -5.3616271672        1.6640362950
 H         1.0021996469       -8.2215940503        1.3593613871
 H         0.4970915253       -9.1408984448        0.0471529915
 H        -0.5060090979       -7.5948572579        0.3776290625
 H         3.1132012795       -7.4354502755       -1.7877154191
 H         3.5120732695       -7.5158472274       -0.0668317219
 H         2.6549919880       -8.8813022904       -0.7522099053
 H         1.8991146693       -3.3641817308        1.5479320284
 H         0.3086497635       -2.9070865181        1.7817226871
 H        -0.2851972217        0.0348764830        1.7210379991
 H         0.0117254917        1.4811053836        0.8657653436
 H         1.4364063523       -0.9494811423        2.1252271294
 H         2.1596737657        0.3698893505        1.2688213382
 H         3.1271552053       -1.1831489360        1.4762465789
 H         2.5584961046       -1.2309666128       -2.2277121436
 H         3.0457596505        0.0489660410       -1.2008783456
 H         3.5811903695       -1.5586317497       -0.8491491672
 H        -2.2982675523        1.6522236465        0.8736611200
 H        -1.8933207768        0.7719317990       -0.6415788259
 H        -6.6342911322       -0.0020519094        3.2812092579
 H        -5.7553062463       -1.6368245322        3.3347378180
 H        -5.0330770302        1.5871335105        1.0158224290
 H        -6.1093614883        0.4498596928        0.5348588058
 H        -4.9829719663        0.7684491197       -0.4445966380
 H        -5.0590964433       -2.0982639378       -0.0695605304
 H        -4.1949059423       -2.6192649627        1.1431903695
 H        -5.9057909148       -2.0447991934        1.5277826511
 H        -4.6311846855       -0.7377155171        5.4527761382
 H        -6.4061314748       -0.5172583089        5.6402894638
 H        -3.5778862518        2.6938305370        3.8094680448
 H        -2.9172919931        3.7686912251        4.9505348816
 H        -5.9858803630        3.0289060400        7.2100670873
 H        -5.3847521134        3.6325723983        5.7204568813
 H        -4.3759686067        3.8036105612        7.3046371184
 H        -4.6716829032       -0.1928355067        7.3518971999
 H        -3.8705086516        1.1241741709        8.3582058351
 H        -5.5414760106        1.1565391038        7.9925159831
 H        -1.1116175596        1.6121601671        3.6412225949
 H        -1.2383474584        3.2702651699        3.0431732251
 H         0.8800579279        4.3787101584        2.0723963534
 H         1.5363185019        4.9402349747        3.4210890192
 H         1.9508997230        4.7769460853        5.4369630639
 H         2.8671567876        3.3293494520        6.1626094476
 H         1.3656412503        3.8671166418        6.8889038479
 H         0.5951821799        0.6989109251        4.8383422048
 H         2.1856499144        1.0426814329        5.2388381012
 H         0.9614515953        1.3278885601        6.5041294944
 H         3.0991643305        3.2307786396        1.4167042017
 H         3.9292987188        4.3839049228        2.6457151178
 H         2.8559681142        5.1044143368       -3.0226053539
 H         4.0542873327        3.7848977947       -3.1469958267
 H         3.6567593104        6.5509876005       -1.6788408660
 H         5.3404287113        6.1100411708       -1.7626651859
 H         4.6113731216        7.1353781425       -0.3938070991
 H         6.3747591630        4.8135359411       -0.1671291394
 H         5.4479184562        4.3498554686        1.3016394926
 H         5.4954482213        3.2005338181        0.0412237611
 H         2.4299710101        2.0848577131       -3.1437463681
 H         1.1694560215        3.1380701299       -2.2824092930
 H        -1.4576499594        0.5332426759       -4.2627747902
 H        -0.9361519996        1.6501642957       -3.1021426370
 H        -1.6779746942        2.2798661480       -4.6078890007
 H        -0.8631869234        3.5000075437       -6.0546281625
 H        -0.1083379765        2.5424981103       -7.3546882891
 H         0.5961856734        4.0844474869       -6.9785739252
 H         2.2202936684        1.4681421377       -6.9850824471
 H         3.1189809725        2.8441230341       -6.3458104079
 H         2.8365359977        1.4289124515       -5.2694562745
 Na        0.1425587151       -1.4370536899       -3.1109281335
