155

 C        -2.4941787235       -2.4964588544       -6.5950892555
 C        -1.5575836870       -2.9540073333       -5.4150250037
 C        -1.0380614527       -4.3974202088       -5.5400793235
 C         0.4093408171       -4.3883137789       -4.8300954650
 C         0.8952330410       -5.8316436700       -4.4653816562
 C        -2.1725012584       -5.2668132691       -4.9059729803
 C        -0.7244292069       -4.6919183840       -7.0229952979
 O        -1.3161784989       -2.2729236302       -4.4575231601
 O         1.0503156871       -3.3726089909       -4.7657369446
 C         1.6044273314       -5.9312787510       -3.1071833863
 C         0.7636121204       -6.8227953810       -2.1595931414
 C         1.5114529696       -6.8950160488       -0.6805222791
 C         1.6967225082       -5.3870178499       -0.0266109018
 C         0.4413549765       -4.6847695925        0.5529762577
 O        -0.3042363447       -7.2592391267       -2.4818403454
 O         2.7799605311       -4.8139096397       -0.0435421330
 C         0.7664275430       -7.8061103063        0.2168933952
 C         2.9492113164       -7.4864669240       -0.8791327703
 C         0.8769763499       -3.3250672844        1.0089089040
 C         1.0784738309       -2.4918058819       -0.1977436772
 C         1.6011743291       -0.9121321457        0.0749693535
 C         0.2694340755       -0.1740546485       -0.1086618165
 C        -0.5091365795        0.3500006964        1.0830435928
 C         2.2574894637       -0.7054865297        1.5275402534
 C         2.6193620064       -0.5231885054       -1.0303779055
 O         0.8488519929       -2.7845550486       -1.3634415710
 O        -0.1382893219       -0.0427030052       -1.2791186452
 C        -2.0978246588        0.4493696475        0.9742245624
 C        -2.6447027581       -0.9688038812        0.9182846748
 C        -4.1177768658       -1.1019567421        1.1618506017
 C        -4.2179695017       -0.7178047785        2.7279471922
 C        -5.5989096685       -0.5493544120        3.3815799430
 O        -1.9519380474       -1.9040577456        0.5365651158
 O        -3.1801185808       -0.5472993019        3.3414220565
 C        -4.9783096348       -0.2377923048        0.2405030297
 C        -4.4533648002       -2.5703994607        0.9750046453
 C        -5.4616103703       -0.0063628123        4.7889875260
 C        -5.5486684886        1.5047495180        4.8007825963
 C        -4.6995812791        2.1693745190        5.8989414873
 C        -3.1299296438        2.0665051698        5.4142705979
 C        -2.7368663702        3.0250186236        4.2199348966
 C        -5.0712917372        3.6712377133        6.0609752014
 C        -4.9028256449        1.4153002330        7.2595399732
 O        -6.2499587620        2.0796337963        4.0148291573
 O        -2.3835269381        1.2785163423        5.9076498376
 C        -1.2196370564        2.9267927943        3.9470207395
 C        -0.4630972182        3.4547949209        5.2152924529
 C         1.0272577688        3.0517615326        5.3389008920
 C         1.6745351809        3.0572296973        3.9371356847
 C         2.0467467892        4.4213481173        3.4161479329
 O        -0.9130899191        4.2821200240        6.0011381706
 O         1.8892156954        2.0796455486        3.2560005683
 C         1.7733753560        3.8434367359        6.3986500101
 C         0.9930849521        1.4728602567        5.6888178199
 C         3.2126122726        4.3209613123        2.4611372927
 C         3.0965896588        5.1145242008        1.1310943830
 C         4.1926688265        4.8619355164        0.0931735380
 C         3.4239413863        3.8633474267       -0.9868023887
 C         2.6682893188        4.4965615579       -2.2510690089
 C         4.4843182938        6.1460480978       -0.6829788853
 C         5.4017163596        4.0985466679        0.5107039532
 O         2.1863637310        5.8708424050        0.9524782214
 O         3.4442261646        2.6676812631       -0.7640223048
 C         2.4791430949        3.3048342369       -3.3093321652
 C         1.2383748559        3.4933727141       -4.2164557549
 C         0.7933547131        2.4264827748       -5.3852472925
 C         0.0748688528        1.1835815103       -4.7045632809
 C        -1.1863947663        1.3130271221       -3.8824383379
 O         0.6260179239        4.5463456834       -4.1018591458
 O         0.6214568231        0.1213031461       -4.8080576680
 C        -0.1389310471        3.3401585414       -6.2014180845
 C         2.0238938143        1.9399285315       -6.0921104354
 H        -3.2251001442       -1.6993677797       -6.3959046282
 H        -1.8811818806       -2.3017297840       -7.4468740285
 H        -3.1134545024       -3.3675531151       -6.9520608512
 H         0.0594479944       -6.4716633992       -4.4327718394
 H         1.5711690290       -6.1593710586       -5.1993550777
 H        -3.0494185944       -5.3856909498       -5.6371158632
 H        -2.7060560957       -4.7436993247       -4.1639380904
 H        -1.8642402195       -6.2750694319       -4.7251249408
 H        -0.1873030379       -5.6410162040       -7.0098257557
 H        -1.5880975011       -4.6921548672       -7.7373201712
 H         0.0032351764       -3.9503926739       -7.3986311940
 H         2.5686492606       -6.3398898151       -3.1245129738
 H         1.8123502251       -4.9781542214       -2.7863833025
 H        -0.2369657036       -4.5396707385       -0.2388949000
 H         0.0324171874       -5.2390775702        1.3778479758
 H         1.1531336983       -8.9124629393        0.1569004035
 H        -0.3880761862       -7.7992751658       -0.0044607172
 H         0.7808858633       -7.6321940597        1.3316508263
 H         3.5476015128       -6.7467202957       -1.4511287406
 H         3.4485422448       -7.7882065436       -0.0071817881
 H         2.6957218979       -8.4562339406       -1.4061689634
 H         1.6631165686       -3.2249922969        1.8169188952
 H        -0.0679543372       -2.8701501973        1.5197447551
 H        -0.4627842735       -0.5125989815        1.7173274963
 H         0.0360907184        1.3135546881        1.4353531633
 H         1.6209556366       -1.1000101293        2.3395529516
 H         2.4181201555        0.3727764445        1.5372562136
 H         3.2804453250       -1.1646060519        1.7325142535
 H         2.1828918356       -0.4438361869       -2.0436082922
 H         3.0742188708        0.3962495483       -0.8218165117
 H         3.4442708895       -1.2102550478       -1.1323237767
 H        -2.4785263059        1.0339872619        1.8291565141
 H        -2.3845918147        0.9239519844        0.0731874461
 H        -6.0862762459        0.3312938661        2.8100152037
 H        -6.2503747784       -1.3718308821        3.1954910433
 H        -5.0549643064        0.8578853580        0.3344868406
 H        -6.0605932752       -0.4256165820        0.1298336139
 H        -4.5360486280       -0.0990170629       -0.7513157416
 H        -5.4275931903       -2.7297921349        1.3835809614
 H        -4.4218887780       -2.7465752009       -0.1036118080
 H        -3.6907215017       -3.2533058573        1.3312182875
 H        -4.3826751204       -0.0735419013        4.9515864763
 H        -6.0948378496       -0.3991780509        5.5568545417
 H        -3.4678011894        2.9784689276        3.4243836433
 H        -2.8932583286        4.0473494838        4.5457951327
 H        -6.1972034596        3.8173731559        6.0892235297
 H        -4.6838996268        4.2980467985        5.3494644057
 H        -4.6867813552        3.9945517234        7.0474835983
 H        -4.4552022499        0.4348470739        7.2330298159
 H        -4.3570003688        1.9683040977        8.0792383758
 H        -5.9719622960        1.4145012916        7.4765962638
 H        -0.8952114799        1.8869941271        3.7116378133
 H        -0.8159034727        3.6468105725        3.1937231256
 H         1.1532530446        4.6814788402        2.8145800401
 H         2.2746271965        5.2262758053        4.1990776995
 H         1.8266070304        4.9499993927        6.1811307765
 H         2.8175620897        3.5010481560        6.3698445337
 H         1.4118730011        3.6103378061        7.3831329625
 H         0.6511495107        0.9050173218        4.8384171549
 H         1.9681953719        1.2158972590        6.0587581971
 H         0.2291594087        1.2161551501        6.5106070686
 H         3.3018751691        3.3310508790        2.0671544493
 H         4.1908470554        4.6367267109        2.9401394587
 H         1.7024190113        4.8405731840       -1.8141303303
 H         3.1930596669        5.2544793742       -2.7436607304
 H         3.6604420646        6.5843186422       -1.2226058060
 H         5.4392524679        6.1823035093       -1.1890061701
 H         4.7785392478        6.8801209373        0.0767493605
 H         6.0093890457        3.6906891591       -0.3383942480
 H         6.0328434531        4.8723300558        0.9948957985
 H         5.2406001746        3.2160866206        1.1293927585
 H         3.3819091010        3.1880551117       -3.9258252615
 H         2.5141802329        2.3022259762       -2.7450829670
 H        -0.9829145105        1.5072863086       -2.8601899834
 H        -1.7617034783        2.2075777864       -4.2061323433
 H        -1.7973075791        0.4545347941       -3.9512573008
 H        -0.6350114450        4.0048676219       -5.5472823499
 H        -0.9445677602        2.7433690319       -6.6451691390
 H         0.3528870869        4.0248517371       -6.9469910231
 H         1.6333854425        1.6145871559       -7.0906309414
 H         2.6109518471        2.8551881610       -6.2796548079
 H         2.4883984464        1.1027954059       -5.6206231573
 Na        0.4089408235       -1.3973409658       -3.0711597811
