155

 C        -2.7907420125       -2.7224468197       -6.2987647945
 C        -1.7689602368       -3.1284371092       -5.3040790678
 C        -0.7889832369       -4.3681255829       -5.4650585434
 C         0.5946577271       -4.2561582582       -4.6719542567
 C         1.3891029296       -5.5007834675       -4.7393162147
 C        -1.6857433168       -5.5603876251       -5.0430706703
 C        -0.3582664977       -4.6028421125       -6.9155987798
 O        -1.6720792475       -2.4642546835       -4.2810291855
 O         1.1230115584       -3.2542892642       -4.3098213552
 C         2.1426017952       -5.9620349841       -3.4743483228
 C         1.2371226537       -6.6369431437       -2.5169458314
 C         1.7106887776       -6.9932017896       -1.0724367150
 C         1.9099115772       -5.4423141813       -0.2980739747
 C         0.7583604028       -4.9294249541        0.5958885174
 O         0.0312447611       -6.6258399295       -2.7037334352
 O         2.9620920391       -4.8455275123       -0.3112192608
 C         0.6019898409       -7.8120971317       -0.3128736366
 C         3.1418930660       -7.7287483771       -1.1659804347
 C         1.0944970982       -3.4834836133        0.9675165608
 C         1.1086866655       -2.5347940362       -0.1789798359
 C         1.4145476795       -1.0170729373        0.0407870861
 C         0.1223659909       -0.1352112019       -0.2123619586
 C        -0.4730936822        0.7523773750        0.8874830403
 C         1.7759161173       -0.7664473421        1.5443167946
 C         2.6321418286       -0.4792108318       -0.7836504829
 O         0.8388502281       -2.9382138877       -1.3127552977
 O        -0.3766998016        0.0093765410       -1.3195216996
 C        -2.1117476101        0.4420150462        0.8549476798
 C        -2.4776938305       -1.0664618138        0.8468871282
 C        -3.9280993033       -1.5533133765        1.1487949010
 C        -4.0949398811       -1.0831066302        2.7445098824
 C        -5.5385749196       -0.7823899245        3.2190842181
 O        -1.6249822618       -1.8871077038        0.4802418169
 O        -3.1835333136       -1.1773776154        3.5173760063
 C        -4.9575250101       -0.8373248204        0.3028614677
 C        -4.0268349080       -3.1578223810        1.2432489166
 C        -5.5400918634        0.0413069516        4.5968820740
 C        -5.6226703988        1.5125478613        4.3714156291
 C        -5.1016418562        2.4361708433        5.6250023011
 C        -3.5746981719        2.3841419210        5.4336426289
 C        -2.9421648024        3.4903474711        4.3934637023
 C        -5.5911381091        3.9816166017        5.5865249374
 C        -5.5885102900        1.8196405580        6.9888347523
 O        -5.8816623254        2.0586047055        3.3030895856
 O        -2.8831301465        1.4599331241        5.7806685135
 C        -1.4507173209        3.1507427512        4.1230622010
 C        -0.4926572095        3.9023035471        5.1759374310
 C         0.9369356651        3.2891225055        5.4295751300
 C         1.7691373656        3.1555705173        4.1669178366
 C         2.8399727177        4.2410175988        3.8384480446
 O        -0.8505351022        4.8873103308        5.7982823494
 O         1.6416659182        2.1672269539        3.4600855673
 C         1.6047071311        4.1023411057        6.5652398329
 C         0.6894388765        1.8202209957        6.0396488175
 C         3.7127146074        3.9022738874        2.5506709901
 C         3.1012901749        4.5814088454        1.3282249814
 C         4.0596463753        4.7918918429        0.1467740204
 C         3.4854884172        3.8955328081       -1.0541585561
 C         2.2554533207        4.3109326856       -1.8763579431
 C         4.0524879559        6.2813843929       -0.2212897301
 C         5.5236891607        4.3699690086        0.3440924689
 O         1.8953394854        4.6550733146        1.2308812353
 O         3.9552192981        2.7665226522       -1.2716242242
 C         2.2173473802        3.4847278239       -3.1077988892
 C         0.9539634490        3.5709785296       -3.9317175278
 C         0.6981013089        2.6002177465       -5.2864197114
 C         0.2511679902        1.3716951929       -4.5336235170
 C        -1.1681104204        1.1441976879       -3.9881466347
 O         0.0752819731        4.2803646561       -3.5751351818
 O         1.1313337589        0.5292698881       -4.2436159318
 C        -0.2397842062        3.3934923377       -6.1561788183
 C         2.0262450539        2.2619279433       -6.0172907859
 H        -2.8544361632       -3.4344557563       -7.1621519423
 H        -3.7492911885       -2.8028480141       -5.7803621698
 H        -2.5643146911       -1.7589669378       -6.7300925531
 H         0.8604845703       -6.3731486607       -5.0799659929
 H         2.1975596834       -5.3279555832       -5.4383316692
 H        -2.6365399177       -5.3386334710       -4.6873561825
 H        -1.1403186930       -6.2933548414       -4.4521627403
 H        -1.9332165261       -6.1679948209       -5.8783114688
 H         0.5396606120       -5.2767333216       -7.0218377363
 H        -1.1544186670       -5.1810264441       -7.4865777114
 H        -0.1263396108       -3.6806604790       -7.3569358886
 H         2.9423641032       -6.6639773221       -3.7955019466
 H         2.5707339809       -5.0787329434       -2.9823371333
 H        -0.1872027785       -5.0604862186       -0.0049848656
 H         0.6718904975       -5.6391288307        1.4671438158
 H        -0.2345902953       -7.9450569344       -1.0458954316
 H         0.1114735521       -7.2587986921        0.4793027882
 H         0.7405924382       -8.8026079101       -0.0262614929
 H         3.9234039807       -7.0410905005       -1.6038988215
 H         3.4073751727       -7.8877012921       -0.1163342125
 H         3.1534825583       -8.4983437884       -1.9319083957
 H         2.0326600295       -3.5888827450        1.4461824013
 H         0.3578521837       -3.0320749751        1.5874697413
 H        -0.1789668313        0.5555440274        1.9763883787
 H        -0.1620046639        1.7891720530        0.6401830788
 H         1.0305162489       -1.0985089550        2.2530335969
 H         1.8393615004        0.3311799244        1.6794759383
 H         2.7909486631       -1.1601303356        1.5952546835
 H         2.4709168230       -0.5135597412       -1.8531002253
 H         2.6886258628        0.6073304858       -0.6268752659
 H         3.5996014229       -0.9183816234       -0.6210609968
 H        -2.5754055376        0.9268570941        1.6940067216
 H        -2.7129864273        1.0435461828        0.0287203273
 H        -6.1197592348       -0.3880082028        2.4188753045
 H        -6.1451349690       -1.7193384946        3.3391923876
 H        -5.1388926901        0.2353122584        0.5124033785
 H        -5.9854651310       -1.2646270692        0.2646318810
 H        -4.8990812355       -0.8862049222       -0.7990538047
 H        -5.1072164673       -3.4070482723        1.0843196574
 H        -3.2693658477       -3.6478987661        0.5411829110
 H        -3.7800176670       -3.3391117696        2.2372412417
 H        -4.5701748738       -0.1676013441        5.0802337437
 H        -6.3833334062       -0.2640331663        5.2503452150
 H        -3.4712906406        3.4809434587        3.4089950117
 H        -2.9578772287        4.5488577641        4.6629210785
 H        -5.4956722470        4.3571097212        6.6834721155
 H        -6.5399104257        4.0968397974        5.2571341470
 H        -5.0146668077        4.5965930780        4.9200150586
 H        -4.9644450357        0.9494057244        7.1823043006
 H        -5.3158552369        2.5615238805        7.7818090444
 H        -6.6616807757        1.5892309385        7.0556233288
 H        -1.2719623336        2.0901976711        4.3566652825
 H        -1.1649997583        3.3326045709        3.0930693565
 H         2.1674308101        5.1102665949        3.5020255263
 H         3.5153472696        4.4646884581        4.6626716318
 H         1.7779235959        5.0893593892        6.2933522694
 H         2.6741364076        3.7599158411        6.6544893175
 H         1.0625048454        4.2459377228        7.4680557428
 H         0.5712939453        0.9553688932        5.3429163977
 H         1.6708403830        1.5264840562        6.5744047899
 H        -0.0981973599        1.7877459372        6.8076028609
 H         3.7671110944        2.7851915073        2.4415372684
 H         4.7489895177        4.1373866644        2.5915751712
 H         1.3474327125        4.1591465777       -1.2741479384
 H         2.1718338868        5.4455163966       -2.0933053347
 H         3.0509623862        6.6041516327       -0.4854603675
 H         4.7113781437        6.6177632288       -1.0389458727
 H         4.1546079136        6.7271864835        0.6816568014
 H         6.0940673390        4.2128428098       -0.5919645448
 H         6.1462986396        5.1848072376        0.8434992659
 H         5.6542928337        3.5937129590        1.0530111500
 H         3.0291785287        3.8241713511       -3.7498198291
 H         2.4570522500        2.5042094609       -2.9128911631
 H        -1.8849980724        1.4120823952       -4.7277917527
 H        -1.4133185017        0.1816801757       -3.5100073257
 H        -1.3192703573        1.8910015306       -3.2947984102
 H        -0.9326373831        3.9993329452       -5.6050839323
 H        -0.8659546898        2.7066494252       -6.8192970788
 H         0.3548436446        4.0079155858       -6.7964959735
 H         1.7017427910        1.4550135069       -6.6933992778
 H         2.5775424812        3.0494172359       -6.5347765663
 H         2.5480282275        1.7883021294       -5.1672823711
 Na        0.1745353198       -1.4194205356       -3.1761326660
