155

 C        -2.9971101588       -3.7315183798       -5.2522703562
 C        -1.5292454742       -3.2525182293       -5.3958005981
 C        -0.5538998395       -4.2642511661       -5.9383057978
 C         0.6930095481       -4.3167442426       -4.9302652587
 C         1.7126926087       -5.4695017977       -5.1380938093
 C        -1.2135791360       -5.6115347394       -6.3174509453
 C         0.1506126970       -3.5869889928       -7.2100637054
 O        -1.2517493578       -2.2062814729       -4.8626441348
 O         0.8693478098       -3.3957678756       -4.1911626735
 C         2.5675958902       -5.8705934077       -3.8366128073
 C         1.6339751797       -6.2919423598       -2.6836708494
 C         2.2639518112       -6.7189087875       -1.3979793077
 C         2.5179493578       -5.4436466588       -0.4431596152
 C         1.2152771429       -4.9456175481        0.2967707882
 O         0.4136126680       -6.0537412521       -2.7575672506
 O         3.6085994092       -4.9477685296       -0.3662332550
 C         1.3110907648       -7.7208141840       -0.7754422523
 C         3.6172563331       -7.4812261275       -1.6803458448
 C         1.2982539791       -3.6086438775        0.9375619101
 C         1.1055801166       -2.5097595904       -0.1398413791
 C         1.4548449155       -0.8841425124        0.2129548397
 C         0.0852938075       -0.2037972811       -0.1724311708
 C        -0.7764804937        0.5980853133        0.7881022659
 C         1.6204715258       -0.8416308100        1.7314664881
 C         2.5901876807       -0.3264257050       -0.6227729404
 O         0.6836745470       -2.7208979259       -1.2511260225
 O        -0.3452826641       -0.2735701265       -1.3384276127
 C        -2.2634362748        0.1518052561        1.0426669667
 C        -2.3205063637       -1.3017818315        1.4273968513
 C        -3.7772459203       -1.8764795711        1.7037335245
 C        -4.3785882631       -1.3561853600        3.0834120478
 C        -5.8459686588       -0.9348436485        3.1990241236
 O        -1.3808198060       -2.0811700632        1.2564805237
 O        -3.6395061808       -1.4321444129        4.0148498463
 C        -4.6186932402       -1.5943754288        0.4657930378
 C        -3.6905444495       -3.4258557019        1.8394317788
 C        -5.9486067912        0.1977865737        4.2593819990
 C        -5.0782442304        1.3547624280        3.9556042541
 C        -5.2468003554        2.6099207489        4.7897917687
 C        -3.8312174353        3.2703043573        5.1757669121
 C        -2.9891920046        3.7953075263        3.9778524183
 C        -5.9842520864        3.6144726536        3.8889859632
 C        -6.0197156854        2.3312142058        6.1290992587
 O        -4.2364811051        1.2937172791        3.0966910605
 O        -3.3904498949        3.3431015563        6.2755365185
 C        -1.5945428436        3.2466571377        4.0682938303
 C        -0.6675373166        4.1300011738        4.9324674015
 C         0.5803348463        3.4316931785        5.6196604213
 C         1.5458261209        2.8928924018        4.4774756758
 C         2.7450014588        3.7735490397        3.9822989574
 O        -0.8601432577        5.3256218948        4.8609943159
 O         1.3759747445        1.7806025381        3.9939790510
 C         1.2244167900        4.4674801805        6.5057035096
 C         0.0985957592        2.2466168144        6.5168203608
 C         3.5210082242        3.0560512188        2.8555275510
 C         2.8914790430        3.5372708515        1.5543469853
 C         3.7037796770        4.5818098850        0.6042619135
 C         3.5532151074        4.0813741832       -0.8902649337
 C         2.1490780371        4.1157012087       -1.5384390469
 C         2.9149451095        5.9600338671        0.6584917390
 C         5.1871280191        4.8312763344        0.9676687809
 O         1.7159975479        3.3064085974        1.3727255081
 O         4.5307004198        3.5549114373       -1.4352434052
 C         2.0184029708        3.3131075435       -2.8013329971
 C         0.6654242078        3.5245042853       -3.4836794664
 C         0.5594555894        2.8705251036       -4.9007576485
 C        -0.0095926240        1.4403581615       -4.7015460495
 C        -1.4692032343        1.1992302906       -4.5393015401
 O        -0.3091112786        4.0509544742       -2.9584773035
 O         0.7980146697        0.5015634606       -4.5326213603
 C        -0.3309373992        3.8448237148       -5.7102272874
 C         1.9340377129        2.6505338534       -5.6733222367
 H        -3.4187731726       -4.2690478061       -6.1282270212
 H        -3.0336375053       -4.3181005906       -4.3087811637
 H        -3.6921508711       -2.9237690056       -5.1287523821
 H         1.2533008218       -6.3500419192       -5.6243374303
 H         2.4302114996       -5.0707153815       -5.8220743507
 H        -1.3754270709       -6.3198958258       -5.5831208308
 H        -0.5327432672       -6.1725747558       -6.9582110907
 H        -2.0724390394       -5.3662933021       -6.8345912177
 H         0.7770636120       -4.3798836698       -7.7142298576
 H        -0.5779700811       -3.0758047087       -7.8716735069
 H         0.8461620047       -2.8432078432       -6.8733281761
 H         3.2901582816       -6.6793269326       -4.1234689849
 H         3.1656089550       -4.9180183499       -3.6280274064
 H         0.3206709296       -4.9935902460       -0.4520601462
 H         0.9861207767       -5.7434291738        1.0595052510
 H         0.3555917009       -7.1818348125       -0.6131862072
 H         1.5169409374       -8.2025919694        0.1708366509
 H         1.1393543970       -8.5734448027       -1.3864462197
 H         4.4642109252       -6.7853138142       -1.5871519992
 H         4.0000646018       -8.3147554117       -1.0139729616
 H         3.5337605840       -8.0943693305       -2.5692778832
 H         2.3075433168       -3.4430183868        1.2253826095
 H         0.6127176947       -3.5202836181        1.7023347700
 H        -0.1512726473        0.6259043834        1.6884261920
 H        -0.8294827883        1.5998752181        0.4525963929
 H         0.7539529438       -1.4359397020        2.0640753301
 H         1.6712522083        0.2214793622        2.1299413823
 H         2.5590664486       -1.2901276631        2.0320075792
 H         2.3596361769       -0.3096861513       -1.6462940659
 H         2.9607842764        0.6927931646       -0.3948002959
 H         3.5066245590       -0.9042151329       -0.5686798865
 H        -2.7702937401        0.7816188592        1.7861614353
 H        -2.8052835708        0.3045801109        0.0641222861
 H        -6.1882703317       -0.4694168991        2.2429983846
 H        -6.5209202010       -1.7948601924        3.4171632174
 H        -5.0931363698       -0.6348202958        0.1109802244
 H        -5.5115574520       -2.2615544889        0.6150690179
 H        -4.0108246235       -1.9810452133       -0.4187686700
 H        -4.6626417793       -3.7657604795        1.3777184977
 H        -2.8241864369       -3.6906416341        1.2114552494
 H        -3.4886522547       -3.6552075501        2.8262718772
 H        -5.6782402046       -0.1504768021        5.2685955557
 H        -6.9440112194        0.6107759382        4.4282215967
 H        -3.3375413409        3.4627065561        3.0082638125
 H        -2.8733222767        4.9125210418        4.0211681489
 H        -6.6832975890        4.3119293538        4.5322197673
 H        -6.5545693043        3.1336454307        3.1415058984
 H        -5.3100256723        4.2294482784        3.3864584447
 H        -5.5233155104        1.4723128482        6.6426966877
 H        -5.8361769933        3.0759241801        6.8473085472
 H        -7.0925811315        2.1180142747        6.0715139152
 H        -1.5545343555        2.2436988608        4.4179947487
 H        -1.1769179355        3.1995915318        3.0442966316
 H         2.4760431701        4.7471964607        3.5517420273
 H         3.3653651731        4.1252236520        4.8575629277
 H         1.4017232401        5.3094921526        5.9064643229
 H         2.1595751348        4.1949604073        7.0538425117
 H         0.5452952438        4.8433349992        7.3000395289
 H        -0.1323646013        1.3079222137        5.9767848522
 H         0.8834549236        2.0990186836        7.3247470264
 H        -0.8388784009        2.3680636129        6.9985810465
 H         3.2555310432        2.0208719765        2.8939762772
 H         4.6121189074        3.2334425319        2.8454323256
 H         1.3447261098        3.8805080561       -0.7875285271
 H         2.0272540275        5.1861372852       -1.8389128106
 H         1.9182260389        5.7263988190        0.3152012886
 H         3.3737216137        6.6164276663       -0.0657002825
 H         3.0716866725        6.5278585723        1.5572322543
 H         5.6003855408        5.7249924936        0.4420111863
 H         5.3332732288        5.1328012120        2.0158322626
 H         5.7964277272        3.9775798022        0.5704934932
 H         2.8488047788        3.4604539277       -3.4453728392
 H         2.0090720264        2.3154108505       -2.4271097486
 H        -2.1041296291        1.4956203237       -5.3347132576
 H        -1.5620196912        0.0943671787       -4.5241503137
 H        -1.8413685614        1.5697702074       -3.6463847069
 H        -1.2892102815        4.0470720915       -5.1678040119
 H        -0.5173047107        3.5879533635       -6.7431037797
 H         0.1349537267        4.8149826482       -5.7512486977
 H         1.7903060887        2.2759521752       -6.6570763541
 H         2.5385081479        3.5578889370       -5.6416779285
 H         2.4466203110        1.8147470449       -5.1248505278
 Na        0.2286951228       -1.4995595067       -3.0894232663
