155

 C        -2.5113544331       -4.5375583645       -4.6353258503
 C        -1.4783724804       -3.5064654260       -4.9934954155
 C        -0.3466115492       -3.9354446472       -6.0327740764
 C         0.9350813722       -4.1483454313       -5.2175952290
 C         1.8778233389       -5.4168752900       -5.3079178432
 C        -0.5966285205       -5.1882497642       -6.9081679388
 C         0.0499039632       -2.7539062433       -6.9706240236
 O        -1.5392228506       -2.3804095871       -4.5352784524
 O         1.3745512719       -3.2077535068       -4.5975320114
 C         2.6017948958       -5.7586199240       -4.0260613564
 C         1.7589154772       -6.2398304692       -2.8764150888
 C         2.5201740392       -6.6496849601       -1.5906752067
 C         2.4778515062       -5.2330515976       -0.8046408607
 C         1.2071486191       -4.8399470440       -0.1111573374
 O         0.5169550702       -6.3521521206       -2.9779682581
 O         3.4630916865       -4.6144856300       -0.5740722028
 C         1.8007426737       -7.6273334589       -0.7447932002
 C         4.0591242084       -6.9835267759       -1.7570840299
 C         1.1434331624       -3.5243671720        0.6641903890
 C         1.3433409337       -2.3926345616       -0.3946625648
 C         1.5149408726       -0.8679392471        0.0436477453
 C         0.0141780777       -0.3674367614       -0.1862492620
 C        -0.8441066001        0.3199661330        0.9410436642
 C         2.0592251333       -0.8124200268        1.5030470171
 C         2.4212936100       -0.1145754774       -0.8654016123
 O         1.3105077910       -2.6778089567       -1.5945214020
 O        -0.5610353405       -0.5111982764       -1.2449396258
 C        -2.3043633686       -0.1581878040        1.0676430793
 C        -2.3028677584       -1.5454020914        1.6791648013
 C        -3.7774715888       -2.1437866613        1.8973648475
 C        -4.3899410867       -1.4331559792        3.1902191615
 C        -5.8209137121       -0.8807957904        3.2413840510
 O        -1.3615916621       -2.2767547349        1.8843630358
 O        -3.8058744004       -1.7158013575        4.2082631970
 C        -4.7596812737       -1.9897046852        0.6423032048
 C        -3.7317144526       -3.6817255437        2.2370579951
 C        -5.7840237736        0.3452573018        4.2037164984
 C        -4.7672025995        1.4251111875        3.9473575009
 C        -5.1445181573        2.8901457228        4.4256359652
 C        -3.7482978547        3.7048045319        4.6770086282
 C        -2.8334237918        3.9591638657        3.4202151665
 C        -6.0711092800        3.6028465440        3.3332986203
 C        -5.9493200780        2.9630343910        5.6848352968
 O        -3.7831815720        1.1820318525        3.3070354442
 O        -3.5527762248        4.1387879906        5.7648704298
 C        -1.4739490714        3.2659112376        3.6810569826
 C        -0.7246015701        4.1681301050        4.6454751692
 C         0.2657180175        3.4028586775        5.7294336923
 C         1.2622421275        2.7059994344        4.8817652580
 C         2.4403874479        3.5167067188        4.2425224567
 O        -0.7355612227        5.3713188688        4.5216361986
 O         1.1457437985        1.4950621556        4.6921130696
 C         0.8807475177        4.4808179660        6.5535122912
 C        -0.6556918473        2.3421060184        6.4535681386
 C         3.2170969740        2.6801463996        3.1233841567
 C         2.6934454109        3.1643998416        1.7328902302
 C         3.2171237207        4.4310134792        0.9496979927
 C         3.3331032217        4.0938111493       -0.5845272084
 C         2.1102931236        4.3428386694       -1.4415792519
 C         2.1638260584        5.5696453143        1.2358253801
 C         4.5479968251        4.8353174730        1.5763869983
 O         1.6466643021        2.6616219533        1.3016414151
 O         4.3711201709        3.6717075312       -1.0712159210
 C         2.1549201709        3.6425976170       -2.8431735376
 C         0.7713745091        3.6375178653       -3.5624568569
 C         0.5587501928        2.7408546396       -4.9453574986
 C         0.0752224980        1.3827778161       -4.4253069875
 C        -1.3015440080        1.2765967678       -3.8961883249
 O        -0.2464878528        3.9025657417       -2.9620640114
 O         0.8481890956        0.4582600254       -4.3741191487
 C        -0.5585210029        3.5131476065       -5.7693931769
 C         1.8441426185        2.7565487079       -5.8200059996
 H        -3.3242865730       -4.4267687798       -5.3648109321
 H        -2.1036371067       -5.5376189459       -4.8980129754
 H        -2.9750651270       -4.4152467015       -3.6489621673
 H         1.2784668188       -6.3720218194       -5.4607479150
 H         2.6133482006       -5.4218696477       -6.2049068984
 H        -0.8621045311       -5.9880754313       -6.2832152610
 H         0.2703740898       -5.2730557115       -7.5963489220
 H        -1.3824641171       -4.9806875955       -7.6373746225
 H         0.6348698178       -3.1600007926       -7.7787134747
 H        -0.8044503021       -2.3957509301       -7.5254629849
 H         0.6410611742       -1.9323588010       -6.4113565864
 H         3.4305065073       -6.5465527330       -4.1623947641
 H         3.2063078780       -4.8275874990       -3.7327721020
 H         0.4133428923       -5.0207830719       -0.7589696710
 H         1.1807615512       -5.5796612732        0.7141826780
 H         0.7626346051       -7.4707091886       -0.6472597918
 H         2.2844828257       -7.6213984911        0.1708698695
 H         1.8678143882       -8.5211839070       -1.2054556249
 H         4.6046045540       -6.1088192057       -2.1627117560
 H         4.5639310619       -7.3138703505       -0.7890737391
 H         4.2615146648       -7.7644374825       -2.5730814410
 H         1.7526844701       -3.4821177281        1.5704835218
 H         0.0840342180       -3.4153631597        1.0152485721
 H        -0.2567325277        0.1114195808        1.7918219705
 H        -0.8996605798        1.3351070766        0.6383671775
 H         1.4836651277       -1.2846527154        2.3246604882
 H         2.2030265391        0.2209062147        1.7751167608
 H         3.0448959078       -1.3345637708        1.3803256234
 H         2.0692323627       -0.1259146414       -1.9007132392
 H         2.5308651584        0.9154098283       -0.6751856684
 H         3.4208259503       -0.5199401386       -0.9809979979
 H        -2.9431954819        0.5388001901        1.6711376202
 H        -2.6289859844       -0.2909196969        0.1289372218
 H        -6.0814886691       -0.4604572679        2.2598683528
 H        -6.4608380807       -1.5409106450        3.7610078738
 H        -4.8703758865       -0.8786368679        0.4423310785
 H        -5.7346457203       -2.4788073494        0.8143234426
 H        -4.4600467421       -2.5419686658       -0.2854615006
 H        -4.7721008950       -3.9092272320        2.5577181456
 H        -3.2237899735       -4.1868182623        1.3941672352
 H        -3.0692143927       -3.6805675168        3.1385745714
 H        -5.7219212268       -0.0288178605        5.2406607944
 H        -6.7765957209        0.8570344627        4.1761476602
 H        -3.4103235538        3.4915082578        2.5856478063
 H        -2.6576701873        5.0088669949        3.2016874834
 H        -6.3984730818        2.8461405837        2.5702283311
 H        -5.6638387931        4.4510573350        2.7877628454
 H        -6.9736162837        3.8747047633        3.7927982809
 H        -5.3800805501        2.7044344430        6.5904316526
 H        -6.3266940185        3.9659906018        5.8390548528
 H        -6.8681528500        2.3843075747        5.7003493177
 H        -1.4750748866        2.2686438641        4.1452883065
 H        -0.9175099166        3.1737612332        2.7813779792
 H         2.2149646683        4.5199312258        3.8806621043
 H         3.1571095689        3.7038579792        5.0375250122
 H         1.1846536836        5.2898637153        5.8157317578
 H         1.8221855429        4.2373035603        6.9040151278
 H         0.1565971725        4.9660259782        7.2463390914
 H        -0.6386408149        1.3467461127        5.8587499658
 H        -0.2092256424        1.9341922751        7.4143083629
 H        -1.6792018405        2.6478085623        6.7163818885
 H         2.9699499494        1.6347645088        3.3140976286
 H         4.2749634513        2.9215711696        3.2848845950
 H         1.2210764252        3.8889146594       -1.0226202000
 H         2.0079548306        5.3612334262       -1.5498964519
 H         1.2098847479        5.2909013074        0.9040146899
 H         2.4661439250        6.4091613225        0.7624243813
 H         1.9997586484        5.5659722533        2.3178210081
 H         4.9259675953        5.7867196773        1.1612657202
 H         4.4747655847        4.9319239433        2.6628729637
 H         5.2373209407        3.9413999163        1.4732288271
 H         2.8529366568        4.0838792440       -3.5680544466
 H         2.6379422875        2.6334838049       -2.7451918438
 H        -1.7204153743        0.3641415136       -4.2227348249
 H        -1.2261945839        1.1795490401       -2.8373655786
 H        -1.9668565662        2.1454709232       -4.0038778115
 H        -1.3247809810        3.9202542848       -5.0762867661
 H        -1.1007602622        2.8730166812       -6.3915548054
 H        -0.1253325259        4.3479642737       -6.3744218860
 H         1.4863977077        2.6104236533       -6.8657987555
 H         2.2411876457        3.7973798265       -5.8518107406
 H         2.6700889596        2.1148830655       -5.5209359423
 Na        0.2903302757       -1.4454658343       -3.2187032157
