155

 C        -1.4554907341       -5.2431172320       -4.1427045785
 C        -1.0216369371       -3.8711142264       -4.7735014909
 C         0.1025514349       -3.7441939340       -5.8911241146
 C         1.4908713192       -3.4137923738       -5.1865073010
 C         2.7449367510       -3.8802598432       -5.8583051499
 C         0.0732271155       -5.1134165217       -6.6155701345
 C        -0.2199379877       -2.5092794341       -6.8522359256
 O        -1.4951138266       -2.8818422724       -4.3081181684
 O         1.6179307339       -2.7479524481       -4.1774357651
 C         3.7270899255       -4.4636920514       -4.7755845104
 C         3.0324732724       -5.5873870763       -3.9888773021
 C         3.7167056434       -6.3257823375       -2.7446597484
 C         3.3807598979       -5.3372220161       -1.5127845462
 C         2.2194595090       -5.6143619857       -0.6626849257
 O         1.8238591971       -5.7074526666       -4.0869683284
 O         4.0806156270       -4.3335499586       -1.3646426734
 C         3.1044448760       -7.7716950415       -2.5150838112
 C         5.2443387117       -6.4480649476       -3.0179316841
 C         1.8975733838       -4.5474445215        0.3915514494
 C         1.6464711683       -3.1353995496       -0.2617141608
 C         1.6044862912       -1.7604455898        0.6973969979
 C         0.1495936393       -1.0980957490        0.5491334606
 C        -0.3915218140       -0.4637367285        1.8138152122
 C         2.0400998773       -1.9822782953        2.1469391012
 C         2.5838607045       -0.8353520811       -0.0123593128
 O         1.2521638497       -3.0237275523       -1.4177327868
 O        -0.4735376291       -0.9677614256       -0.4972506285
 C        -1.9268839762       -0.4978355058        1.8065206098
 C        -2.3356846350       -2.0139420882        1.8739579319
 C        -3.7322147029       -2.5159941699        2.6240257725
 C        -4.2639512937       -1.2342400930        3.4103548976
 C        -5.5785951726       -0.4829039647        2.8428626628
 O        -1.6261896445       -2.8410227621        1.3120118256
 O        -3.7812745850       -0.8840734279        4.4326045517
 C        -4.8286275600       -3.0682290218        1.6545067646
 C        -3.4416588112       -3.6178535916        3.6837167396
 C        -6.0277313605        0.8267546493        3.5853363151
 C        -5.4212008191        2.1754635099        3.0124295882
 C        -5.6462985813        3.4910164233        3.6947757943
 C        -4.2713025546        4.2648874547        3.9583877265
 C        -3.1634345813        4.3551789072        2.8812736956
 C        -6.3887249994        4.3833337008        2.6563550132
 C        -6.5100621115        3.3904280968        4.9612728250
 O        -4.6923669819        2.1180900964        2.0305240496
 O        -4.1400772875        4.6546884295        5.0766114722
 C        -2.0008655325        3.3356364800        3.1861711266
 C        -1.1106465441        3.9101735576        4.3040509447
 C        -0.5985735004        3.0093486194        5.5323911607
 C         0.5076377565        2.2506423186        4.8456830882
 C         1.8616263322        3.0374061606        4.6375275257
 O        -1.0129505919        5.1221105381        4.3733389227
 O         0.3937949929        1.1634378897        4.3101468572
 C        -0.1695136962        4.0840944133        6.5683681771
 C        -1.7513854129        2.0528276881        5.9684442621
 C         2.5574508638        2.6550827182        3.3359382366
 C         1.8183021671        3.2947977400        2.0197589244
 C         2.2841818471        4.7448902708        1.5155231487
 C         2.7395142965        4.4192801374        0.0553247414
 C         1.5530038673        4.3407937945       -1.0370432416
 C         1.1857027647        5.7598463574        1.6778395814
 C         3.5572179637        5.2619774091        2.2781465072
 O         1.0057304013        2.6174087025        1.4763448693
 O         3.9137299772        4.1681301344       -0.2236713733
 C         2.0463344358        3.7956050002       -2.4064598367
 C         0.8522820167        3.6503751417       -3.3372160676
 C         0.8213760112        2.6402221088       -4.5005509842
 C         0.1183030675        1.3623890282       -3.9035402561
 C        -1.3370269143        1.0587995669       -4.2812656918
 O        -0.1101016707        4.3954584111       -3.1293319107
 O         0.8293788578        0.6183362866       -3.1861069363
 C         0.1467194311        3.2989191246       -5.7176053373
 C         2.2158288149        2.1450617056       -4.9359693573
 H        -1.2560311449       -6.1556096446       -4.6943739306
 H        -1.2355994815       -5.3676785038       -3.1032520954
 H        -2.5875000860       -5.1740479020       -4.1342651855
 H         2.5592166516       -4.8249347850       -6.4229316176
 H         3.2885456568       -3.0914875843       -6.4509933235
 H         0.3539854436       -5.9778098731       -6.0137397011
 H         0.6827103902       -5.0477989266       -7.4820341498
 H        -0.9166583493       -5.4338611231       -6.9474515443
 H         0.6104452750       -2.0781955186       -7.3838847086
 H        -0.9777339453       -2.7392559225       -7.6158291342
 H        -0.6946595601       -1.7305765358       -6.2316588288
 H         4.5608175134       -4.9256107901       -5.3172521592
 H         4.0703739983       -3.6747009793       -4.0470988600
 H         1.2670913811       -5.8506589146       -1.2116052722
 H         2.3526205793       -6.4495179620       -0.0356009329
 H         2.0756222843       -7.5690925143       -2.5341656588
 H         3.4634279091       -8.3255385343       -1.6683392583
 H         3.4235919878       -8.2589355291       -3.3369549527
 H         5.8130450853       -5.4582266155       -2.9337055265
 H         5.7293521970       -7.2055837429       -2.3851223423
 H         5.3537715485       -6.6282684225       -4.1480588806
 H         2.8529293985       -4.4619735450        1.0351623296
 H         0.9737572050       -4.8042185162        0.9275509760
 H         0.0622128137       -0.7307141380        2.8077988307
 H        -0.0279040262        0.5766286471        1.8347716129
 H         1.2484521119       -2.5446697120        2.6528281421
 H         2.2156166743       -1.0298532195        2.7020293957
 H         2.9517000792       -2.5374860009        2.2650574429
 H         2.3267689016       -0.7533450061       -1.0885905303
 H         2.6903582756        0.1830042034        0.3871920315
 H         3.5608744468       -1.2450316460       -0.1126758196
 H        -2.2127857915       -0.1166851736        2.7451623778
 H        -2.3766889663        0.2394819596        1.0038145401
 H        -5.3163423091       -0.0863979634        1.7883883048
 H        -6.3681297177       -1.1866789019        2.7791896789
 H        -5.3830313976       -2.2192497830        1.1879352677
 H        -5.6131430853       -3.6096266999        2.2902649258
 H        -4.4128789449       -3.7160426220        0.8628397486
 H        -4.3524455861       -3.7463007412        4.3372883679
 H        -3.3449666801       -4.5439838729        3.0356620090
 H        -2.5444387364       -3.3811186648        4.3705606612
 H        -5.7897911055        0.8629612591        4.6706328232
 H        -7.1060996664        0.7745036733        3.4362033498
 H        -3.5457704829        4.1646738321        1.8908612138
 H        -2.7459212185        5.3744727075        3.0013208846
 H        -6.3771951515        5.3679542776        2.9993178691
 H        -7.4993060030        4.1170463210        2.5128130357
 H        -5.8408940338        4.3529739080        1.7260396606
 H        -5.9573024501        2.9059361607        5.7323576210
 H        -6.7155375633        4.4273754078        5.2766724283
 H        -7.4021286050        2.8330234341        4.7551532882
 H        -2.4821406772        2.3991677344        3.3241036292
 H        -1.4948235612        3.1565717108        2.2413921928
 H         1.7504789974        4.0629413095        4.7021647484
 H         2.4552300254        2.7151958736        5.5179165964
 H         0.6060870730        4.7132820332        6.0986471147
 H         0.2466936588        3.5814656594        7.4509589925
 H        -1.0384912457        4.6398662205        6.8039733202
 H        -1.7242275275        1.3689689017        5.0527121947
 H        -1.4112851276        1.4913548397        6.8732699668
 H        -2.6661944971        2.5045458321        6.3196952388
 H         2.5606387554        1.6032854583        3.0908193979
 H         3.6074074878        3.0719189676        3.3953216771
 H         0.8240701738        3.6520061101       -0.7764510541
 H         1.1324103201        5.4176050302       -1.1429035129
 H         0.2870530250        5.5442150299        1.1763327827
 H         1.4254890055        6.7617093875        1.2949219244
 H         0.9049178678        5.8969139402        2.7129651984
 H         3.7717486443        6.3299135084        2.0705901188
 H         3.4039389588        5.0776271127        3.3747475926
 H         4.4416949668        4.7823556985        1.9425420507
 H         2.6675470069        4.5329452036       -2.9241602702
 H         2.6407064758        2.8553079009       -2.2294230511
 H        -1.4298905100        0.5546900201       -5.1855257460
 H        -1.7219006881        0.4768244389       -3.5046767494
 H        -2.0309350753        1.9422482059       -4.2850340636
 H        -0.8574557758        3.5504058839       -5.5235240656
 H         0.0020053390        2.4545711411       -6.4829255430
 H         0.7543078725        4.0966018158       -6.0812733805
 H         2.1712003210        1.5106512752       -5.8267544862
 H         2.9690928273        2.8757556358       -5.2026609639
 H         2.6656422047        1.4923594888       -4.2262334834
 Na        0.0416672362       -1.7008987706       -2.7347138180
