155

 C        -1.4502776344       -4.8351316529       -4.6664714290
 C        -0.6304484359       -3.5948105054       -4.5729645133
 C         0.3990294240       -3.2501934467       -5.6780681926
 C         1.8038105311       -3.5056392479       -5.0178890339
 C         2.6113510716       -4.6209544501       -5.5752926057
 C         0.1968180120       -4.0350433360       -6.9769776239
 C         0.1946348343       -1.7580062138       -6.1115864486
 O        -0.8556206865       -2.7207366696       -3.7407302522
 O         2.2135947441       -2.8077392421       -4.1543062070
 C         3.9560367942       -4.7149609145       -4.6991055572
 C         3.8461673083       -5.8809662534       -3.7788612161
 C         4.9123402927       -5.9002505702       -2.6732856716
 C         4.1118558237       -5.0769274616       -1.4912406263
 C         2.6830494324       -5.7459078880       -0.9451244174
 O         2.9411931476       -6.7295474134       -3.9102005246
 O         4.3304082675       -3.9158160112       -1.2970376737
 C         5.2810529513       -7.3749893151       -2.0666166342
 C         6.2492825121       -5.1816644695       -2.8925016465
 C         2.1619954054       -4.6834751581        0.0940025742
 C         1.9023550665       -3.3211798395       -0.4630185276
 C         1.9732085137       -1.9077922243        0.4364218867
 C         0.4236124067       -1.4520299544        0.5514174429
 C        -0.3455693512       -1.5264042285        1.7880922430
 C         2.5073089632       -2.2179534395        1.8365565494
 C         2.8406666550       -0.8602642031       -0.3094713100
 O         1.6162765023       -3.1837077326       -1.6050759228
 O        -0.1128885140       -0.9891542219       -0.4595490263
 C        -1.8020024822       -0.9881989649        1.7489076395
 C        -2.4700547067       -1.5364551234        2.9793658190
 C        -3.9804994671       -2.0976867601        2.7061847804
 C        -4.9377375579       -0.9557639909        2.3490944448
 C        -6.4060756228       -1.0435873311        2.6486709562
 O        -1.9282034848       -1.3287099246        4.0613524321
 O        -4.4511870673        0.0358502112        1.8366236246
 C        -4.0964276568       -3.0904179465        1.5914862379
 C        -4.2864449312       -2.7087089463        4.0661972522
 C        -6.9712274570        0.2927801237        3.0705544952
 C        -6.7527095139        1.4475164567        2.1486167246
 C        -6.2673125354        2.8775744188        2.9392819895
 C        -5.0598813926        2.6037499928        3.8614343969
 C        -3.6538860421        2.9748267906        3.3784126095
 C        -5.9794838625        3.9585404425        1.7776825209
 C        -7.4302779247        3.2537467344        3.7556075988
 O        -7.0291981776        1.4607862065        0.9587681192
 O        -5.2340025679        2.0747899475        4.9355487498
 C        -2.5179255075        2.2946468765        4.1917065771
 C        -1.9330605826        3.3861392539        5.2588506588
 C        -0.6493212937        2.8132367087        6.1490322296
 C         0.4287842801        2.3408790863        5.0692078566
 C         1.3852052721        3.3984755831        4.5830108987
 O        -2.2827589916        4.5410676926        5.2559364691
 O         0.5044818610        1.2832477642        4.5852073695
 C        -0.1726410348        3.9737880849        7.1122551288
 C        -1.1094653157        1.6308489302        6.9647686328
 C         2.3451335023        2.9327309742        3.4546440660
 C         1.6929441165        3.2600188658        2.1029096155
 C         1.7518178444        4.7692099654        1.6410803371
 C         2.3081610843        4.6924414224        0.1649907926
 C         1.3060311414        4.2239714672       -0.9691286835
 C         0.2923122692        5.3471074207        1.6004950125
 C         2.8326100973        5.6136559359        2.4419113822
 O         1.0180781207        2.4213678774        1.5555624321
 O         3.5025277918        4.7365493426       -0.0053724196
 C         1.8981378572        3.9487888202       -2.3530464649
 C         0.9555186737        4.1921052897       -3.5057003476
 C         1.1814157103        3.2044472553       -4.7838792522
 C         0.4813909859        1.8515044887       -4.2462113020
 C        -0.9983928856        1.8320209341       -4.0591611609
 O         0.2017778289        5.1226381119       -3.5009499036
 O         1.2093796477        0.8957561925       -4.0677796873
 C         0.3798011698        3.7452829416       -6.0631007311
 C         2.7018352970        3.0110461432       -5.1144791958
 H        -2.0931611813       -4.6013393498       -5.5281622348
 H        -0.8784531098       -5.6755262773       -5.0612745342
 H        -1.9965442160       -5.1786344958       -3.7896840079
 H         2.1354926027       -5.5822060273       -5.7055588833
 H         2.8422382996       -4.1456433511       -6.5078276006
 H         0.3422555592       -5.1150575667       -6.8223530640
 H         0.9693597639       -3.7849416638       -7.6865808190
 H        -0.7294310293       -3.7167269054       -7.4012436098
 H         0.9986004740       -1.5748812946       -6.9029134283
 H        -0.8191416444       -1.7152474095       -6.5709831981
 H         0.2446353336       -1.0806148986       -5.3007098762
 H         4.7063714374       -4.9805330555       -5.4983339828
 H         4.1877879701       -3.7873045095       -4.0956410573
 H         2.0312677509       -5.7941053295       -1.8251378898
 H         3.0710640299       -6.7719342204       -0.6080229600
 H         4.4843842603       -7.9777428486       -1.7904226985
 H         5.7233594257       -7.1315360215       -1.1229701655
 H         5.9879033926       -8.0319020822       -2.6121331354
 H         6.0899162520       -4.1198689885       -3.1479364046
 H         6.8387066978       -5.2006515759       -2.0328022020
 H         6.7415645482       -5.6431303920       -3.7713970684
 H         2.7744283143       -4.9004832708        0.9310694686
 H         1.1786184457       -5.1599869843        0.3609691772
 H        -0.2788479278       -2.5303738949        2.2796197208
 H         0.2651721942       -0.8142704303        2.4189135154
 H         1.7333154178       -2.7618752044        2.4042956190
 H         2.6991487989       -1.2683425618        2.3930384284
 H         3.4711657848       -2.7661087617        1.8299696051
 H         2.2605310398       -0.3260653986       -1.0723897215
 H         3.2402551828       -0.0900535872        0.3497696744
 H         3.6720175060       -1.2761125364       -0.9220852070
 H        -1.6824194164        0.1403658379        1.7490558910
 H        -2.2872245023       -1.2204318430        0.8337466786
 H        -6.9575164871       -1.3114139740        1.7661012497
 H        -6.7366661919       -1.7787912321        3.3654649366
 H        -3.9952044011       -2.6014780148        0.5990627906
 H        -5.0179655337       -3.6313622154        1.5952214310
 H        -3.3273332430       -3.8883147669        1.5188459377
 H        -5.3795743342       -2.5772348254        4.3730967939
 H        -4.2739179284       -3.8269809419        4.1047410176
 H        -3.6016939064       -2.5146568080        4.9646952851
 H        -6.6317706664        0.5418827374        4.1050920607
 H        -8.0522680355        0.2607591058        3.0062238217
 H        -3.6669268019        2.4626136289        2.4163144433
 H        -3.4583064597        4.0543093270        3.2775937395
 H        -6.8181555924        4.5063193043        1.5647999920
 H        -5.6403875984        3.3697650184        0.9579557812
 H        -5.0771786434        4.6207017645        2.0449052254
 H        -7.6123146036        2.4356456371        4.5179434714
 H        -7.2841351746        4.1367871184        4.2845744828
 H        -8.3347258939        3.3826240162        3.1449894466
 H        -2.8459911085        1.4681982180        4.7666986737
 H        -1.6487187345        2.1034516178        3.5708185356
 H         0.7852470556        4.1861600162        4.1640259796
 H         1.9427094669        3.8900522162        5.3511651671
 H         0.2566126573        4.8460806758        6.7048675478
 H         0.5257380574        3.6025923837        7.9066076346
 H        -1.0226703952        4.4020547161        7.5712352039
 H        -1.0847389374        0.6589753523        6.4520597465
 H        -0.4176118733        1.3776815033        7.7304181424
 H        -2.1033819366        1.7561648362        7.3562241706
 H         2.4383152647        1.8528360086        3.6166956721
 H         3.3118147671        3.3955481287        3.5633249470
 H         0.9117415028        3.2313093717       -0.6119499811
 H         0.6020594884        4.9830471283       -1.0730545956
 H        -0.2943311030        4.5335161809        1.1218950042
 H         0.1822797945        6.3264235226        0.9738713170
 H        -0.1205662136        5.3555240381        2.5867756950
 H         2.6929882192        6.6513963928        2.1351518177
 H         2.5751381219        5.6464631659        3.5034893222
 H         3.8606614086        5.2615250073        2.2742508276
 H         2.7582317094        4.5578225166       -2.5655263056
 H         2.2904525541        2.8770324087       -2.3669989834
 H        -1.4752710322        1.4512223113       -5.0268039500
 H        -1.2688377280        1.1361962494       -3.2678309293
 H        -1.3651950740        2.8989627621       -3.8937415516
 H        -0.6721098068        3.9634323602       -5.8315464450
 H         0.4452642860        2.9089890584       -6.7944941214
 H         0.8619981869        4.5991406333       -6.4974561158
 H         2.7938610916        3.0096829461       -6.1570437101
 H         3.3226135724        3.7829744666       -4.6545785392
 H         2.9291026331        2.0559619947       -4.5558430111
 Na        0.7445728512       -1.2269911429       -2.7104391122
