155

 C        -1.5068229860       -3.6810198546       -5.6679788414
 C        -0.2216419251       -3.1928468243       -5.0604176288
 C         1.1268779814       -3.2817878371       -5.8828039031
 C         2.2758605575       -3.4991968307       -4.8692417537
 C         2.4774627357       -4.8147492785       -4.0483677727
 C         0.9412014303       -4.3949561454       -6.9411884911
 C         1.2084371417       -1.8476680636       -6.4523178979
 O        -0.3354974431       -2.5608267911       -3.9797147778
 O         2.9968819294       -2.5446898091       -4.6785179246
 C         3.9035650858       -4.7886095117       -3.5984803451
 C         4.1557642498       -5.4734501349       -2.2736422654
 C         5.5791883678       -5.3178301477       -1.7030019314
 C         5.4967020065       -4.0071479783       -0.8543428498
 C         4.5623711176       -3.9234083111        0.3430172830
 O         3.2956586202       -6.0442720256       -1.6675740868
 O         6.1238572744       -3.0548345046       -1.2195377817
 C         5.9037238572       -6.3299831818       -0.7295468058
 C         6.7332317119       -5.1845953097       -2.7535318427
 C         4.2261188286       -2.4346397550        0.5653773439
 C         3.0045925196       -1.9661332028       -0.2832324187
 C         2.0697437980       -0.7591104045        0.1761324613
 C         0.6057460674       -1.2525530501        0.0569135789
 C        -0.2234812704       -1.6802751365        1.1994812533
 C         2.4140061339       -0.2942367136        1.6513340897
 C         2.3636623295        0.3968624936       -0.8106487744
 O         2.7631663064       -2.5604749138       -1.3758564478
 O         0.0514453565       -1.3622886114       -1.0536389513
 C        -1.7382847782       -1.9070729739        0.7905329441
 C        -2.5559877352       -2.4309320043        1.9732540488
 C        -4.1129628901       -2.3540504429        1.6882767475
 C        -4.6748097828       -0.8969432575        1.2852002874
 C        -6.2655205360       -0.7337361032        0.8473119129
 O        -2.1867151795       -2.9081613965        2.9861199037
 O        -3.9704378691        0.0693277838        1.2421353252
 C        -4.4942791320       -3.4235512533        0.5518312392
 C        -4.8591519901       -2.7438560394        2.9521704952
 C        -7.0754322205        0.2127842887        1.7753866608
 C        -6.9008351321        1.7186806032        1.5676321578
 C        -6.8362547712        2.7301515106        2.7790734233
 C        -5.8138808853        2.1239106298        3.7855421906
 C        -4.3468272073        2.5685370542        3.6633897777
 C        -6.4415275412        4.1224207586        2.2735266581
 C        -8.2862108220        2.6025436316        3.4162130984
 O        -6.8578714231        2.1085127831        0.4057461589
 O        -6.1918738495        1.3417427461        4.6352168467
 C        -3.4320092018        1.5934865336        4.4347155624
 C        -2.1420810222        2.2167413228        5.0660913533
 C        -1.0464401140        1.3322919901        5.6578238915
 C         0.2834524380        1.5545308216        4.7709021375
 C         0.9188466163        2.8449958097        5.0778226714
 O        -2.0882467963        3.3549542345        5.4466278323
 O         0.7271714293        0.7401065209        4.0436746232
 C        -0.8060558287        1.6178071144        7.1483085189
 C        -1.3038362389       -0.2034514156        5.5297587819
 C         1.9698494053        3.4449939585        3.9646875449
 C         1.2550665080        3.7760078751        2.6460262444
 C         1.3134728151        5.2199602364        2.1007079892
 C         1.6034851127        5.1225195700        0.5304080233
 C         0.3998547337        4.6810984442       -0.4553131353
 C        -0.1438960170        5.7548531766        2.3319597722
 C         2.4765158275        6.0948336880        2.7572578642
 O         0.5770652022        2.9252706463        2.1252339119
 O         2.7716951926        5.2253187328        0.1584524047
 C         1.0469987537        4.1076326508       -1.7718826074
 C         0.0690966799        3.5437430493       -2.7511365396
 C         0.5887560686        2.9711319983       -4.2425500386
 C         0.3684094600        1.4204280032       -4.1659265085
 C        -1.0157442338        0.9033577886       -4.2962980354
 O        -1.1191387324        3.3995267706       -2.4983574850
 O         1.2976427074        0.6606059766       -3.9315443238
 C        -0.1085199143        3.6613326816       -5.5106744929
 C         2.1300622314        3.2774223106       -4.3608851810
 H        -1.4600473687       -4.7703429103       -5.8086620733
 H        -2.4387958142       -3.3480177145       -5.1074140567
 H        -1.6717719853       -3.2604443314       -6.6468637260
 H         1.8322897722       -4.6375595230       -3.1703086392
 H         2.1058423162       -5.7484169566       -4.5701722408
 H         1.7495488330       -5.1179759025       -6.8893156390
 H         1.1224196338       -4.0930108302       -7.9263655228
 H        -0.0230715759       -4.8467712278       -7.1785944024
 H         2.1823754193       -1.6312755677       -6.8517773615
 H         0.4662285325       -1.6465537561       -7.2237240532
 H         1.0494487009       -1.0581845718       -5.7022896292
 H         4.5330338752       -5.0364759646       -4.3751783337
 H         4.1057902326       -3.7491365859       -3.4075969463
 H         3.7747355416       -4.5976889279        0.1584513128
 H         5.1223683346       -4.1954729502        1.2798660128
 H         5.0843359427       -6.5541464012        0.0135510214
 H         6.6284715188       -6.1515037470        0.0100143554
 H         6.1236829428       -7.3876288765       -1.0534678534
 H         6.5632667506       -4.5016699766       -3.5653386316
 H         7.6342279844       -4.9711782611       -2.1869462975
 H         6.7762078856       -6.1329498259       -3.1929753245
 H         5.1869960290       -1.9198031082        0.4272115906
 H         3.8813069728       -2.2771748596        1.6326690936
 H         0.1966317008       -2.6212634692        1.6103134242
 H        -0.1597750146       -0.9183664117        1.9630805590
 H         2.3633876493       -1.1475499146        2.3178943586
 H         1.6864997051        0.4146277086        2.0655701038
 H         3.3777366133        0.1251159081        1.6909702859
 H         1.7407077759        0.2381905294       -1.6558233056
 H         2.0215382096        1.3854785536       -0.4312327185
 H         3.4023168000        0.3460488332       -1.0423516004
 H        -2.0669806040       -0.9362108508        0.3522503746
 H        -1.9415209711       -2.6766468312        0.0152207978
 H        -6.1785798299       -0.1713037730       -0.0898064337
 H        -6.8026803146       -1.6305082103        0.6965361737
 H        -4.6056894581       -2.9723436675       -0.4655870824
 H        -5.4588917702       -3.9083323606        0.9636202505
 H        -3.7221808508       -4.1990215507        0.7166360310
 H        -5.0511916818       -1.9368929866        3.7285241251
 H        -5.8811217376       -3.1688753735        2.7416858415
 H        -4.2635796749       -3.5595063205        3.5460371392
 H        -6.7737880445       -0.0882202860        2.8002684976
 H        -8.0870432567        0.1334177263        1.4712731327
 H        -3.9737510657        2.6798890751        2.6725480572
 H        -4.2834325416        3.5321905747        4.1314806681
 H        -5.4421211782        4.0737226446        1.8943007904
 H        -6.5234828073        4.9180086300        2.9947764884
 H        -7.2051720234        4.5042530617        1.5555939578
 H        -8.5122655124        1.6025268415        3.6933790103
 H        -8.3170265551        3.3187947721        4.2598402799
 H        -9.0061726486        2.8710200064        2.6505591148
 H        -4.0757163195        1.1466891805        5.2273627241
 H        -3.1888546515        0.8059153632        3.6848007465
 H         0.0758064567        3.4402706347        5.1419583549
 H         1.4487113201        2.6919327765        6.0001704012
 H        -0.5360192044        2.6321748262        7.3848088244
 H        -0.0514634051        0.8776198991        7.4294317856
 H        -1.8601058081        1.3953612738        7.6029104616
 H        -1.1401913760       -0.4559012115        4.5313834430
 H        -0.6244028189       -0.8529957061        6.1472790073
 H        -2.3365391414       -0.4623296879        5.8317200872
 H         2.7234030376        2.7218812650        3.6960554546
 H         2.4467421669        4.3226387288        4.4343314073
 H        -0.0654389407        3.7548465648        0.0125868582
 H        -0.2476252698        5.5306911794       -0.7304820093
 H        -0.9125913081        5.0440316642        1.8350603062
 H        -0.3592008143        6.7781933117        2.0513832737
 H        -0.4533315225        5.8140364622        3.4126335312
 H         2.7395128285        6.9939937193        2.1741408466
 H         2.1864976528        6.3509484467        3.7937305180
 H         3.3807884604        5.5294640139        2.7842019170
 H         1.6699782667        4.8823888350       -2.1715198812
 H         1.7665204198        3.2797481377       -1.4243731798
 H        -1.2779563483        1.1551699853       -5.2731155345
 H        -1.0222412044       -0.1726811342       -4.0952777349
 H        -1.7325466568        1.4063020347       -3.6845384968
 H        -1.1722338124        3.5205540020       -5.6498586722
 H         0.3282444698        3.3608636129       -6.4426030943
 H        -0.0356195063        4.7662000882       -5.3271349141
 H         2.4099011166        3.1848095404       -5.4240292147
 H         2.3702930774        4.3399198669       -4.1455617495
 H         2.7974988330        2.7373959736       -3.7330471003
 Na        1.2462316987       -1.5367379668       -3.1156263090
