155

 C        -1.6828758719       -3.6921866234       -5.7228935673
 C        -0.4014749536       -3.1879953432       -5.0948330359
 C         1.0379474517       -3.3206509989       -5.8912490078
 C         2.2931219764       -3.3978309635       -4.7316918772
 C         2.5450089783       -4.8687513866       -3.9705596549
 C         1.2054976705       -4.5511056656       -6.8300406718
 C         1.2824095161       -2.0139320644       -6.6766006635
 O        -0.4210468192       -2.7206935240       -4.0038690223
 O         2.9263139910       -2.3964710479       -4.4738621511
 C         4.0938026799       -5.0819745160       -3.7313974286
 C         4.3274878292       -5.5397800356       -2.2884521947
 C         5.8224643144       -5.3527277206       -1.6069353227
 C         5.6383503049       -4.0111700956       -0.8382952026
 C         4.5563885813       -3.8744725799        0.3448415706
 O         3.3832405994       -6.0101031816       -1.6285550382
 O         6.1405585095       -2.9293101283       -1.2083929135
 C         6.0506295433       -6.6036118702       -0.7203745190
 C         6.9500507991       -5.2035348835       -2.6502725206
 C         3.9330382157       -2.4624058150        0.7333128699
 C         2.9742834379       -1.8527453229       -0.3495189766
 C         2.0373988107       -0.6189179888        0.1767717486
 C         0.5824317081       -1.1286498504       -0.1448471700
 C        -0.3673840528       -1.7589769015        0.9261573625
 C         2.2188816840       -0.2884233068        1.6592978339
 C         2.3454966150        0.6140574628       -0.6200938826
 O         2.8459621561       -2.3055343825       -1.4273141933
 O         0.1150212971       -0.8138072872       -1.1899522733
 C        -1.8133673865       -1.7268228023        0.5369408314
 C        -2.6585606140       -2.3493613001        1.7546140593
 C        -4.1873214169       -2.3475408657        1.6258472318
 C        -4.7989686187       -0.9052554882        1.3717433896
 C        -6.2407120059       -0.8182480519        0.9019966832
 O        -2.0985351190       -2.7706038955        2.7822598290
 O        -4.0010455374        0.0480921296        1.4231303967
 C        -4.4578032727       -3.2261949753        0.3847124880
 C        -4.8774435123       -2.8884420221        2.9716004251
 C        -7.0625939015        0.1698893047        1.8125507874
 C        -6.7413486953        1.6552126337        1.4682731896
 C        -6.7070385151        2.6126005767        2.7809877908
 C        -5.7087701467        2.0231062586        3.7733258382
 C        -4.3079145953        2.5186093848        3.8172670867
 C        -6.3902598134        4.0075800329        2.2675439344
 C        -8.1750369855        2.6835039477        3.3861754736
 O        -6.6186706415        2.0921557171        0.3737649076
 O        -6.0973815059        1.2814009035        4.6900286979
 C        -3.4082501656        1.4284383011        4.3862093106
 C        -2.3448722288        2.0298323015        5.2454486740
 C        -1.1899710061        1.1244503855        5.7604351716
 C         0.1513133240        1.5822103109        4.8924895587
 C         0.8598244544        2.9271717129        5.0597083400
 O        -2.2847014274        3.2400855003        5.4979928595
 O         0.5889762075        0.9157556673        3.9541416251
 C        -0.9369936176        1.4471067925        7.2825494399
 C        -1.4496243260       -0.3203511483        5.4100508936
 C         1.8767721738        3.2205114468        3.9756741848
 C         1.1516720237        3.6972411225        2.6457912065
 C         1.2575736806        5.1982547417        1.9855782110
 C         1.5537750534        5.0402652821        0.4484420089
 C         0.3972627051        4.5554894318       -0.5161723780
 C        -0.0444095552        5.9431041053        2.2213082159
 C         2.3217010814        6.0584907697        2.6690517557
 O         0.4102366528        2.9118345845        2.0859702527
 O         2.6714181714        5.3096300325        0.1272525447
 C         1.0549398247        4.1734341316       -1.8419799400
 C         0.0711734628        3.4519502051       -2.7271175883
 C         0.5872414688        3.0125873189       -4.1817236182
 C         0.4520366753        1.4886581859       -4.0098490436
 C        -0.8940602078        0.8830587415       -4.1957063330
 O        -1.0920789155        3.3244454877       -2.4584157325
 O         1.4315832216        0.7548613009       -3.8251088753
 C        -0.4049970129        3.6125985412       -5.2261059788
 C         2.1096670168        3.3134075183       -4.5020961637
 H        -1.6953712343       -4.7973993795       -5.7864261831
 H        -2.4258705900       -3.2424317956       -5.1172301667
 H        -1.9461148708       -3.3441090321       -6.7543248734
 H         2.0772399494       -4.7708676429       -3.0215237878
 H         2.0965468761       -5.6395619638       -4.5055933482
 H         2.1966729029       -4.9675169267       -6.8654219143
 H         0.9928267300       -4.4286607299       -7.9414421652
 H         0.5993920499       -5.4462489295       -6.5452962780
 H         2.2355210151       -2.1258075530       -7.2283309248
 H         0.5040277749       -1.7396716879       -7.4097561977
 H         1.3947937704       -1.0823097404       -6.0686290227
 H         4.5566758581       -5.7970225379       -4.4873865480
 H         4.6568229264       -4.1414810952       -3.8534036404
 H         3.5803321080       -4.4195712790       -0.0000825577
 H         4.8838191241       -4.3719938746        1.2472992496
 H         5.4966987709       -6.8136615239        0.1065673439
 H         6.9560680005       -6.6871462979       -0.1560458061
 H         6.2052710510       -7.4743717039       -1.3448976800
 H         6.6369619673       -4.7197181442       -3.5457592305
 H         7.7491670020       -4.6490698792       -2.1503574431
 H         7.2808001865       -6.2323551017       -2.8841084308
 H         4.7145119490       -1.7499876810        1.0064015537
 H         3.3407901949       -2.5314741921        1.6132454593
 H        -0.0852780708       -2.8002739391        1.0924858734
 H        -0.0842489257       -1.3375584233        1.9274554058
 H         1.6660084382       -0.9035341621        2.3806165156
 H         1.9770821689        0.7582908219        1.8038535470
 H         3.3319998768       -0.2879339987        1.8258244565
 H         2.6648115354        0.3619325726       -1.6562567594
 H         1.4927000946        1.2383754612       -0.6668965145
 H         3.1546790270        1.0254871732       -0.0286776309
 H        -2.0882969809       -0.6670943137        0.4873863641
 H        -1.9413826901       -2.1237014526       -0.4719071006
 H        -6.3253361255       -0.6163682242       -0.1818088012
 H        -6.6692139171       -1.8531986160        1.1213568912
 H        -4.2306770704       -2.4885646724       -0.4118914104
 H        -5.4538312048       -3.5749726974        0.4862764242
 H        -3.7379991879       -4.0446008315        0.3549430480
 H        -4.9885709978       -2.1590982162        3.7250581088
 H        -5.9271389572       -3.0553458121        2.7338740212
 H        -4.5253673446       -3.7944149353        3.3746719533
 H        -6.7799689480       -0.1047582773        2.8064935251
 H        -8.1651648690        0.0577400756        1.5771954581
 H        -3.9425193093        2.7804243196        2.8015831558
 H        -4.2589362417        3.4373528925        4.4422598739
 H        -5.2931249895        4.1920973394        2.0805908436
 H        -6.7877499523        4.7802294041        2.8860639581
 H        -6.9967208594        4.1856227863        1.3593405919
 H        -8.3696992233        1.8583944726        4.1305020277
 H        -8.2648734558        3.6227674505        3.8528081601
 H        -8.8771599954        2.5871550747        2.5416966249
 H        -4.0775864943        0.8036658700        5.0060118316
 H        -3.1072330797        0.7755635931        3.5581991535
 H         0.0963941193        3.7899824923        5.0329171115
 H         1.4936326324        2.8037158722        5.9660127112
 H        -0.7686649269        2.5412719179        7.3198542690
 H        -0.0413748963        0.9775163379        7.6212683535
 H        -1.7418567108        1.2219959480        7.8464318053
 H        -1.6268518106       -0.6245681545        4.3317008281
 H        -0.5442736555       -0.8884958995        5.5927427275
 H        -2.2794449822       -0.6492901762        6.0039160899
 H         2.4840993615        2.3564760878        3.6375035062
 H         2.4989017449        3.9740741079        4.4622306818
 H         0.0180019363        3.6466882384       -0.0974004347
 H        -0.3235219463        5.2870010370       -0.7440846367
 H        -0.9048956198        5.4473774216        1.9929966230
 H         0.0039167156        6.8540241334        1.6017292240
 H        -0.2964195270        6.2469651660        3.2559574396
 H         2.1819213908        7.0633672064        2.2480137025
 H         2.1525918072        6.0524771102        3.7645224525
 H         3.3855332897        5.9021083367        2.3671878270
 H         1.4750848322        5.1772938910       -2.1582699572
 H         1.9012242501        3.5316352163       -1.6309707680
 H        -1.2481498522        1.0036571096       -5.2721815225
 H        -0.7844931133       -0.1850387731       -3.9113328969
 H        -1.6488763554        1.3459594166       -3.5192095553
 H        -1.3934535940        3.5393706058       -4.7783149710
 H        -0.4366132521        2.9936649985       -6.1825467142
 H        -0.2950281084        4.6326113642       -5.3908643621
 H         2.4691295287        3.0865980365       -5.4965136925
 H         2.3748636690        4.3556951540       -4.3909700309
 H         2.6563784379        2.8898603039       -3.6142964414
 Na        1.5388355427       -1.2932056914       -2.9674168321
