155

 C        -1.2751129697       -3.9757860689       -5.4641962803
 C        -0.0533332121       -3.2847318989       -4.9783015952
 C         1.2597324023       -3.6608916177       -6.0166660421
 C         2.5187444624       -3.7082294110       -5.0073693089
 C         3.0760266749       -5.0301920516       -4.4785497553
 C         1.0071704434       -4.9283851962       -6.7533620541
 C         1.4897382183       -2.5736031206       -7.0917276194
 O         0.0516852997       -2.4530101721       -4.1088420856
 O         2.9264364498       -2.6692708385       -4.6258463973
 C         4.2287614796       -4.8165990985       -3.5052917964
 C         4.4816927866       -5.6757004430       -2.3010716619
 C         5.7703923142       -5.2144946985       -1.4517103172
 C         5.3201002698       -3.9344910327       -0.7197945178
 C         4.2438950109       -4.0782384789        0.3641729662
 O         3.7667104880       -6.4866986995       -1.7558563721
 O         5.8809511229       -2.8113581853       -0.8838879249
 C         6.2177805975       -6.2260207454       -0.5159653674
 C         7.0247445516       -4.6618863971       -2.2316021827
 C         3.7171590288       -2.5987477675        0.9107791366
 C         2.9239884372       -1.7005774226       -0.1164283609
 C         2.1543550066       -0.4240033349        0.2998997513
 C         0.6627793386       -0.6162003292       -0.1319668404
 C        -0.3299086016       -1.1368250948        0.8730373302
 C         2.3906900620       -0.1357216006        1.8239691559
 C         2.7926642235        0.7707985540       -0.4227614313
 O         2.6822498871       -2.1234632817       -1.2570937024
 O         0.4099314026       -0.4291970126       -1.3306871139
 C        -1.7855370624       -1.2958022214        0.4247752806
 C        -2.5802005980       -1.9814665053        1.5328022398
 C        -4.1356188973       -2.4016713415        1.1947594191
 C        -5.0393856800       -1.0271058810        1.4852753780
 C        -6.4643537758       -0.9615933438        0.9723410148
 O        -2.1394450792       -2.4278528155        2.5927295581
 O        -4.5712967243       -0.0625869992        2.0902208889
 C        -4.4434795503       -2.9591987985       -0.2768985019
 C        -4.5980669163       -3.4741128498        2.2129143292
 C        -7.2984156192        0.1635033829        1.5174255177
 C        -6.5022988214        1.5404131061        1.3749692345
 C        -6.6379980155        2.5625595839        2.6510586078
 C        -5.7817531963        1.9113339369        3.8491641989
 C        -4.2841955244        2.2793115727        3.8187381783
 C        -6.2044353362        3.9916085382        2.2332533068
 C        -8.1495936182        2.5341452245        3.2121077436
 O        -5.8564716079        1.8085692986        0.3994401589
 O        -6.3496199153        1.1406790771        4.5709274831
 C        -3.4369068813        1.2574594960        4.5351737655
 C        -2.5205816709        1.8790526607        5.4897448584
 C        -1.2587082673        1.0344872527        5.8669369149
 C        -0.0085644649        1.3810150318        4.9199152486
 C         0.6421831878        2.7995926741        5.0692786198
 O        -2.6478776047        2.9900728462        6.0170469669
 O         0.4554785239        0.5106848257        4.1519702288
 C        -0.8858489103        1.2220007376        7.3512152523
 C        -1.4102386286       -0.5138243368        5.7322167181
 C         1.5082999578        3.3139172194        3.9258302306
 C         0.7613319289        3.8187847460        2.7357004623
 C         1.1172411778        5.2391393897        2.1029327674
 C         1.5577904003        5.0164125408        0.5824402449
 C         0.5112994798        4.4912885248       -0.4638142436
 C        -0.2031436416        5.9697058717        2.1091929999
 C         2.2566837768        6.1120291390        2.8362675466
 O        -0.0394350089        3.1542696947        2.0864913537
 O         2.6871915511        5.1582008671        0.1998511469
 C         1.0072056276        4.3734583906       -1.8841562626
 C        -0.0306109407        3.6931198628       -2.8189764515
 C         0.3600949602        3.1822395163       -4.2692173803
 C         0.5201449370        1.5828616936       -4.1049575347
 C        -0.7708351904        0.8111294317       -4.0256591295
 O        -1.1022327647        3.3198553801       -2.4166467646
 O         1.6142207831        1.1005387342       -4.0282747968
 C        -0.9110143303        3.5371314276       -5.1362574541
 C         1.5580715269        3.8213217558       -4.9112015596
 H        -1.1095228320       -4.8956515969       -5.9852892201
 H        -2.1170892601       -3.9164803350       -4.7861883672
 H        -1.6061226531       -3.3060117438       -6.2869625889
 H         2.0824937711       -5.5096219945       -4.0379392055
 H         3.3000620609       -5.7218794149       -5.3347190096
 H         2.0071521671       -5.3277826865       -7.1404274694
 H         0.3369375580       -4.7036008506       -7.6285053991
 H         0.8216589224       -5.7731350785       -6.1087072261
 H         2.4210600374       -2.7342939700       -7.7031469522
 H         0.6703879502       -2.5358120291       -7.8428606115
 H         1.5553056527       -1.6434798612       -6.6396288411
 H         5.1889070226       -4.8110611351       -4.0622462476
 H         4.1113349381       -3.7390187299       -3.1021644076
 H         3.4471225341       -4.7312787301        0.1706778946
 H         4.6346459961       -4.6096821595        1.2853988801
 H         5.4072590613       -6.9360634895       -0.1709202219
 H         6.7172746421       -6.0165139321        0.5232598297
 H         6.8837991076       -7.0235228599       -0.8536838529
 H         6.5735751689       -3.9626107208       -3.0096241423
 H         7.6967424808       -4.0891464393       -1.6459432881
 H         7.6156786852       -5.4499728923       -2.7231526896
 H         4.6069957949       -2.1651228121        1.3282443416
 H         3.0320966728       -2.7959393073        1.7870807732
 H         0.0664399617       -2.0350031932        1.4887756612
 H        -0.2198745446       -0.4364522208        1.7638226877
 H         2.4667729785       -1.0653508220        2.4480305607
 H         1.6990565368        0.6277962086        2.2355362146
 H         3.4235204392        0.2554560329        1.8878555299
 H         3.5449717408        1.2907814189        0.1957723095
 H         3.1340664942        0.3324281045       -1.3524334586
 H         1.9537570086        1.3505160738       -0.7916487856
 H        -2.3739075897       -0.4244389354        0.0556864156
 H        -1.8393337109       -2.0857540105       -0.4296003961
 H        -6.3745736674       -0.9291102117       -0.1475436275
 H        -6.9822096904       -1.8991657371        1.1670636688
 H        -4.3792059785       -2.1325620215       -0.9360042057
 H        -5.3988631794       -3.4092066543       -0.1960018806
 H        -3.6960053234       -3.7051345352       -0.5674690482
 H        -4.9594164997       -3.0514966312        3.1735656768
 H        -5.3606438577       -4.0112672679        1.7707579900
 H        -3.8132927894       -4.1738402744        2.3150333548
 H        -7.5366220112       -0.0694366364        2.5852929773
 H        -8.3124827567        0.2970016490        1.1588987510
 H        -3.9532513077        2.5124585413        2.7841550009
 H        -4.2280506533        3.2142821702        4.4590877507
 H        -5.9363459419        4.0336628204        1.2230914824
 H        -5.2706547118        4.2509379428        2.8443543984
 H        -6.9602910604        4.6485100418        2.2797572936
 H        -8.2930060583        1.6016319090        3.6663916385
 H        -8.2803543843        3.3273444182        4.0181808835
 H        -8.8068212764        2.8286399502        2.4072969802
 H        -4.0757115256        0.5136092716        4.9724991742
 H        -2.9224567380        0.6077099708        3.8085706015
 H        -0.1861389427        3.4806690224        5.2966892490
 H         1.2435121562        2.6497665914        6.0223529086
 H        -1.0058655364        2.2579342957        7.6246734112
 H         0.1034516468        0.8175117406        7.7166652326
 H        -1.6062419045        0.6762723618        7.9131600195
 H        -1.6359242718       -0.8558032389        4.6823575503
 H        -0.5580640784       -0.9770081669        6.1829254229
 H        -2.2619066699       -0.8655812386        6.3750598424
 H         2.2464931863        2.5456985999        3.5918065372
 H         2.1333199428        4.1276953797        4.3257204466
 H         0.1165208380        3.4764168369       -0.1087825729
 H        -0.5030457093        5.1183214431       -0.4951052911
 H        -1.0861282466        5.3508737015        1.8216876173
 H        -0.3422514835        6.8474756529        1.4146219827
 H        -0.4318191757        6.3338561492        3.0934785572
 H         2.2221967352        7.1804443504        2.6010848176
 H         2.1969753403        6.0660875289        3.9084144645
 H         3.1918398328        5.5846130611        2.4822257372
 H         1.2232965914        5.3332098353       -2.1706698895
 H         1.8503287074        3.7207873623       -1.9094691569
 H        -1.2386197815        0.7721312474       -5.0498309347
 H        -0.4951622353       -0.1788148424       -3.7849192654
 H        -1.4546512122        1.1302912029       -3.1740420317
 H        -1.8029641411        3.4199212534       -4.4819723265
 H        -1.0455967761        3.0423888800       -6.0452361791
 H        -0.6935215130        4.6107332619       -5.4132667799
 H         1.4890045220        3.6824523823       -6.0460847229
 H         1.5770004052        4.8907332410       -4.6790174419
 H         2.4748295778        3.3329355325       -4.6248236121
 Na        1.8403242439       -1.1506633859       -3.2225368999
