155

 C        -0.3845251602       -5.0022365686       -5.4263703564
 C         0.6136802499       -3.8936365897       -4.9563970196
 C         2.1603163754       -3.9308688630       -5.5289716894
 C         3.1047475256       -2.9411997230       -4.7544566612
 C         4.6986210508       -3.1308243340       -4.4637806789
 C         2.7453437885       -5.3489513518       -5.4680272839
 C         1.9764563336       -3.3046833034       -6.9442892682
 O         0.2548164132       -3.1210379248       -4.1811000550
 O         2.7642912513       -1.8478410018       -4.3617703696
 C         4.7974884798       -3.2214204926       -2.8979319529
 C         5.0139197732       -4.5620748911       -2.2262864920
 C         5.6283141332       -4.5031113806       -0.7843946121
 C         4.7380201211       -3.4991549418        0.1238182236
 C         3.3715521058       -4.0868159716        0.6965040658
 O         4.8490730134       -5.5989469430       -2.8230077622
 O         5.2154495813       -2.4063399069        0.3807668823
 C         5.4924911153       -5.8954823271       -0.2967679898
 C         7.0946598983       -3.9299889476       -0.8871900388
 C         2.3077201004       -3.0164300870        0.9769523870
 C         2.2722550228       -1.9723146634       -0.1422878734
 C         2.3116271143       -0.5053343531        0.3445276066
 C         0.8433738561        0.0909621751       -0.0028423999
 C        -0.2025493721        0.1970564389        1.1090439861
 C         2.8146962793       -0.1514113758        1.7233199235
 C         3.3219600920        0.2443593426       -0.6663467575
 O         2.1424066368       -2.2659395037       -1.3245672905
 O         0.4319125959        0.3708354579       -1.1220599177
 C        -1.5505735366        0.0619836826        0.5088995979
 C        -1.7154453525       -1.4134717743        0.2736099156
 C        -3.1234444658       -1.9509729017       -0.1370404195
 C        -4.2055865107       -1.5547844385        0.9433694170
 C        -5.6542096455       -1.0755480911        0.4459262195
 O        -0.7549924331       -2.1388679528        0.1371313708
 O        -4.0470741594       -1.6515104582        2.1581606734
 C        -3.4464341056       -1.5640927376       -1.5843327312
 C        -3.1093069707       -3.6059300149       -0.1082241281
 C        -6.5230660843       -0.2234935067        1.4560542054
 C        -6.1756163347        1.2779786816        1.4808439132
 C        -6.8622788439        2.2140625982        2.6119396820
 C        -5.9579133097        1.7390444994        3.8306611345
 C        -4.5870240495        2.2622219468        3.9003446739
 C        -6.6311053446        3.7119880859        2.2895521210
 C        -8.3036597443        1.7249734641        2.8080883984
 O        -5.3622594929        1.6321159481        0.6025872320
 O        -6.4555945249        0.9275456691        4.5855984965
 C        -3.5109301626        1.1355393836        4.2801065500
 C        -2.6276157080        1.5097285602        5.5281682853
 C        -1.4432112964        0.5676947512        5.8994600437
 C        -0.1632072532        1.1848574322        5.2232964036
 C         0.2376260664        2.5996237689        5.5881914806
 O        -2.8174384283        2.5483639352        6.2073002078
 O         0.5439189181        0.5598339999        4.4578836367
 C        -1.1820752547        0.6684595426        7.3870012365
 C        -1.6636987590       -0.8819964850        5.3453133743
 C         0.8801449885        3.3637337121        4.3639942080
 C        -0.0362469031        3.8026995304        3.2607975653
 C         0.4492218548        4.8278024164        2.1950278928
 C         0.6398741898        4.0255113811        0.7876184297
 C         0.2507109549        4.5785356591       -0.6155568951
 C        -0.5853173418        5.9240472806        2.0184427929
 C         1.8102422144        5.5268005954        2.3539231907
 O        -1.1264566249        3.2976886491        3.1644364103
 O         1.3218539050        2.9640996039        0.8721732017
 C         0.5141927589        3.6281000781       -1.7758066438
 C        -0.3971285026        3.7947369318       -2.9506356185
 C         0.0662423817        3.1283393359       -4.3389996550
 C        -0.2009608409        1.6392925460       -4.1238942663
 C        -1.5773182564        1.0354871189       -4.1331542508
 O        -1.4115087397        4.4209232234       -2.8843767009
 O         0.8229706525        0.9875628683       -3.9350434691
 C        -0.8079151336        3.8242144096       -5.2807908943
 C         1.5432691634        3.3963623726       -4.5632276942
 H        -0.2744128506       -5.0745633489       -6.5335375086
 H        -0.1311462497       -5.9496842760       -4.9154152048
 H        -1.3200266867       -4.5520684250       -5.2609383090
 H         5.0635920344       -4.0966189023       -4.9045846160
 H         5.3716302148       -2.3080272687       -4.9252722129
 H         3.7823212861       -5.2222032970       -5.9140176116
 H         2.2445860232       -6.0128645361       -6.2171334462
 H         2.7493315420       -5.8441583594       -4.4438732420
 H         2.9981391052       -3.0195045935       -7.3525099055
 H         1.4201314922       -3.9006679372       -7.7242310609
 H         1.5040476435       -2.3691913504       -6.7477806407
 H         5.4677600087       -2.4285821887       -2.4880076462
 H         3.8206666410       -2.8506697138       -2.4411537016
 H         3.0218726300       -4.8427518749       -0.0430362955
 H         3.7441626930       -4.5582960398        1.5658721007
 H         4.5724709251       -6.3795802785       -0.4365114352
 H         5.7478596042       -6.0949198589        0.7310676594
 H         5.9746842732       -6.6813492007       -0.7752866351
 H         7.0241651466       -2.9022070962       -1.1254605515
 H         7.5873180046       -4.0096988038        0.0922914237
 H         7.6711247927       -4.4216085446       -1.6307090586
 H         2.4915527688       -2.5850998405        1.9682167338
 H         1.3056013762       -3.4896819972        1.2238829633
 H        -0.2283683604       -0.6107310281        1.8243963849
 H        -0.1122437925        1.1498044027        1.4689761864
 H         2.5174644475       -0.7976332252        2.5433179377
 H         2.4629808424        0.8558766085        1.8604258187
 H         3.8942640506       -0.1349314850        1.7043723194
 H         4.2955728969        0.0223302708       -0.4305799845
 H         3.0678699472        0.1793575792       -1.7328746166
 H         3.0718776280        1.2357371835       -0.4154961074
 H        -2.3042300863        0.3670168725        1.3171175568
 H        -1.8612260966        0.7211767701       -0.3742825039
 H        -5.5435327134       -0.6268274554       -0.5575016634
 H        -6.1222942221       -2.0640761047        0.2512447351
 H        -3.5768164199       -0.5510261921       -1.7342104151
 H        -4.3830449176       -1.9148044466       -1.9724452191
 H        -2.7740541702       -1.9460419187       -2.2713628274
 H        -2.5238023494       -3.8271675576        0.8102797526
 H        -4.0889174365       -3.9977009146       -0.0749895941
 H        -2.5958880348       -3.9079469534       -1.0227325476
 H        -6.3296720581       -0.5739611299        2.4704456854
 H        -7.5406720900       -0.3484810961        1.0351397307
 H        -4.2774903141        2.6688508503        2.9543394275
 H        -4.5303787479        3.0717066556        4.6788030042
 H        -6.7333311467        4.3227215192        3.1361972810
 H        -7.4751314838        4.1081653005        1.6163051638
 H        -5.7580772977        3.9348436970        1.8309650200
 H        -8.3188353648        0.6683837479        3.2141926680
 H        -8.9313572454        2.3280072463        3.4089749861
 H        -8.7093896773        1.7290728046        1.7730706245
 H        -4.1102155635        0.2699653434        4.5915808438
 H        -2.8948665714        0.8854168182        3.3871872905
 H        -0.6486992505        3.1874019480        5.8557397483
 H         0.9972175806        2.5410228633        6.3036519336
 H        -0.7667584701        1.6476005969        7.6072458597
 H        -0.5692400363       -0.1368461856        7.8651286346
 H        -2.1258695864        0.7139122659        7.9678851325
 H        -1.7170782514       -0.7702004885        4.3056146741
 H        -0.7000470117       -1.4705318784        5.5780354420
 H        -2.5400004073       -1.4301541742        5.7627057064
 H         1.7129110736        2.7253209842        3.9558733170
 H         1.3511301897        4.2644366028        4.8044212921
 H        -0.7964628746        4.7278702394       -0.7062622777
 H         0.7469493100        5.5008713447       -0.6272648639
 H        -1.5361749546        5.4308582840        1.6189075137
 H        -0.3704478931        6.5409035460        1.1479765653
 H        -0.4894390935        6.6964298733        2.8065718425
 H         1.9495629799        6.2874489240        1.5462319661
 H         1.7386637415        6.0386599968        3.3621410755
 H         2.6455903445        4.8447913231        2.4875281579
 H         1.5428989681        3.7489463359       -2.1183526415
 H         0.3293100823        2.6919739020       -1.2124367916
 H        -1.9626965214        0.7713414079       -5.1360616575
 H        -1.5450849908        0.1230770061       -3.5582959227
 H        -2.2551476435        1.7641409944       -3.5757735232
 H        -1.7736727794        3.3722630849       -5.1190480370
 H        -0.4109988026        3.6558478612       -6.2805868386
 H        -0.8979501199        4.9017198730       -5.0231543420
 H         1.8157460269        3.1971814104       -5.5776052850
 H         1.7630178011        4.4902578028       -4.3663374461
 H         2.2262409166        2.6989918742       -4.0369943744
 Na        0.7768433481       -1.1952459625       -3.0537286777
