155

 C         0.1394717684       -4.8159369874       -5.0538679082
 C         1.0213535057       -3.6501127940       -4.7297290510
 C         2.5077188954       -3.7225589764       -5.2841452000
 C         3.4627615024       -2.7136537211       -4.6714419480
 C         4.9705646166       -3.0488890803       -4.4785340270
 C         2.9909467213       -5.1437415260       -5.3831867625
 C         2.3660194391       -3.2190527207       -6.7483517254
 O         0.4757151773       -2.7014957038       -4.2540294860
 O         3.0812254711       -1.6161898862       -4.4258473463
 C         5.2931475638       -2.8494904226       -2.9451069315
 C         4.8907240690       -4.1386720225       -2.0822373577
 C         5.5766950560       -4.1549455660       -0.5785508507
 C         4.4595676171       -3.3569591854        0.1454339560
 C         3.2277336117       -4.0366426317        0.8906479121
 O         4.1004448918       -4.9847338090       -2.5198082589
 O         4.5632111474       -2.1656574121        0.2577643934
 C         5.5133843152       -5.6542883070       -0.1842871015
 C         6.8895883243       -3.5639483187       -0.1887157153
 C         2.2156028147       -2.9870445850        1.1793079278
 C         2.1109756568       -1.9733947184        0.0669683146
 C         2.2133145308       -0.4566937235        0.2729903807
 C         0.7417322320       -0.0023354522       -0.0287626869
 C        -0.2004257425        0.1237531842        1.1401261043
 C         2.8015971471        0.0650438793        1.6112669667
 C         3.0641320117        0.2413633667       -0.9635173147
 O         1.8422754476       -2.3728821157       -1.0407586710
 O         0.2984648892        0.0188325731       -1.1517835042
 C        -1.6484561896       -0.4253833484        0.8726162446
 C        -1.7364825209       -1.8513539837        0.1974611409
 C        -3.1093121360       -2.1177374781       -0.4599507428
 C        -4.1458637914       -1.7510838894        0.5864568761
 C        -5.4105248632       -1.1075055117        0.0828074463
 O        -0.8204868093       -2.6466818527        0.2039810961
 O        -3.9609634137       -1.9652763043        1.7434592378
 C        -3.1072898081       -1.3172581796       -1.7620453196
 C        -3.3074534061       -3.6907772364       -0.7519627912
 C        -6.3410232039       -0.4122736575        1.1672108963
 C        -6.0472653715        1.1003793719        1.4488784202
 C        -6.7769022266        1.8445691782        2.6427520823
 C        -5.9719067531        1.6765813744        3.9319110669
 C        -4.6578699217        2.4497528756        4.1010549595
 C        -6.9746949052        3.2932320110        2.2159138234
 C        -8.2495225411        1.3649553524        2.8243859859
 O        -5.2315143048        1.6370516774        0.7243565691
 O        -6.3550291112        0.9023057001        4.7762310854
 C        -3.5416712463        1.4229215451        4.2484948613
 C        -2.7125974226        1.4375752027        5.6086125265
 C        -1.4519229746        0.4773312920        5.7717442032
 C        -0.2709901002        1.2019762307        4.8714575235
 C         0.2710858956        2.5250508019        5.4284789842
 O        -2.9255397948        2.3124229732        6.4406736855
 O         0.1922298132        0.6292229966        3.9246784249
 C        -1.0365812914        0.4477621777        7.2386594872
 C        -1.6894642572       -0.9575772628        5.3675451903
 C         0.8217033525        3.5056334365        4.4105597552
 C        -0.0437431660        3.7341057223        3.1979848737
 C         0.3278006161        4.7114738812        2.1263399051
 C         0.7092804167        3.8588649177        0.7413946756
 C        -0.1335225303        4.2540231282       -0.4217814561
 C        -0.7978600480        5.7455420446        1.9526338776
 C         1.7015001390        5.2903049000        2.4349736878
 O        -1.1206625739        3.1782186052        3.1771222010
 O         1.3896726404        2.8830502381        0.8392091903
 C         0.3677282742        3.5146583950       -1.6736725826
 C        -0.3655073765        3.9378932951       -2.9791987081
 C        -0.0142819494        3.1724552503       -4.3490030914
 C        -0.2070306779        1.6802942532       -4.1434178055
 C        -1.6056428545        1.1136816511       -3.9779209362
 O        -1.2052089703        4.7836768336       -2.8813907365
 O         0.7807581599        0.9646724885       -4.0601951985
 C        -0.8868533156        3.7371560634       -5.5255719400
 C         1.4142967327        3.4205674193       -4.6753218944
 H         0.0452519656       -4.8932219540       -6.1279707364
 H         0.7668375900       -5.6327767317       -4.7492334028
 H        -0.7960349666       -4.7365779168       -4.4865750805
 H         5.1736225624       -4.0360732559       -4.7186471208
 H         5.4305561882       -2.3870069438       -5.1419192443
 H         4.0534010407       -5.1508323078       -5.6638610652
 H         2.5567625106       -5.7999329426       -6.1788423780
 H         2.7823346735       -5.8183412022       -4.4966016033
 H         3.3422421511       -3.0988025517       -7.2362283658
 H         1.7590126346       -3.9564617913       -7.3004605237
 H         1.7573363327       -2.2372343279       -6.8211170564
 H         6.3903393147       -2.6527387973       -2.7516443371
 H         4.6818129830       -1.9661394387       -2.5732857138
 H         2.7554482869       -4.8364480260        0.3429236402
 H         3.7308168079       -4.5028614436        1.7956042554
 H         4.5694081039       -6.2229505383       -0.2074053469
 H         5.7628514776       -5.9735421174        0.8557667189
 H         6.2321763121       -6.1835106998       -0.6928313047
 H         6.7971251172       -2.6333764789        0.2568175244
 H         7.2221321472       -4.2653127625        0.5758587980
 H         7.6552066897       -3.6394255215       -0.9817408790
 H         2.3721686205       -2.4453738640        2.0913692132
 H         1.2574272917       -3.5008255362        1.3212789057
 H         0.2747117150       -0.4909323943        1.9860055061
 H        -0.3334587870        1.2478637111        1.5152339419
 H         2.0961093988       -0.1691156895        2.3850307680
 H         2.7791420923        1.1043491622        1.3943274294
 H         3.8212033171       -0.3509289255        1.8278965697
 H         3.8753888122        0.7614885992       -0.5506829690
 H         3.2776430050       -0.4811634990       -1.7674964742
 H         2.4620399311        0.9884098441       -1.4132193892
 H        -2.1938477535       -0.3901258051        1.7447942603
 H        -2.2478064722        0.2363816235        0.2728613227
 H        -5.2429214702       -0.5953837990       -0.8530033445
 H        -5.9488996787       -1.9674803177       -0.3131873860
 H        -2.7549194844       -0.3237398431       -1.5850410149
 H        -4.0440243108       -1.2234266584       -2.2765788356
 H        -2.4418590308       -1.6296318947       -2.4507497112
 H        -3.1851184448       -4.2930325497        0.0804271114
 H        -4.2679351827       -3.6828983030       -1.2335820098
 H        -2.4737047456       -3.9943275140       -1.2891201087
 H        -6.1998551134       -0.9045355855        2.1391896399
 H        -7.3267681199       -0.5901141722        0.7968388735
 H        -4.3694173041        3.0350823977        3.1787228151
 H        -4.6611527481        3.1266916598        4.9429789389
 H        -7.4106774156        3.8655926560        3.0060248571
 H        -7.5946502769        3.3033981559        1.2339863053
 H        -6.0324252660        3.7332321109        1.9691317670
 H        -8.3773612247        0.4330750276        3.3842361973
 H        -8.6996148187        2.2132096292        3.3452394687
 H        -8.7819337005        1.2146016432        1.8803724955
 H        -3.8794532448        0.3677080527        3.9805063259
 H        -2.7367578810        1.6033386521        3.4748463340
 H        -0.6390938508        2.9419588292        5.7824792383
 H         0.9093426699        2.4465950741        6.3391341566
 H        -0.7401589765        1.4709260439        7.5346186517
 H        -0.0990059925       -0.0722901043        7.3244939558
 H        -1.9541104873        0.0969830186        7.9116363643
 H        -1.9615925939       -1.0224933600        4.2798004844
 H        -0.7606258413       -1.5138636570        5.4811518573
 H        -2.5463094588       -1.3432171014        5.9422583096
 H         1.8676989497        3.3293372775        4.2925795506
 H         0.8453240046        4.5030857523        4.8844201581
 H        -1.1648998878        4.0240533994       -0.3162126631
 H        -0.2338507615        5.3213404624       -0.5442105586
 H        -1.7453883955        5.1523755459        1.7379969763
 H        -0.5776387857        6.4103828081        1.1312521182
 H        -1.0338521126        6.1808643761        2.9548366215
 H         2.0367067813        5.9402756167        1.5833737956
 H         1.8187673791        5.8735017366        3.4142871732
 H         2.4716729655        4.4973526756        2.4452852771
 H         1.4107537797        3.7925518185       -1.9540778708
 H         0.3900563423        2.4123552404       -1.4344353912
 H        -2.1013553894        1.3199292327       -4.9488805041
 H        -1.3853937265       -0.0063837660       -4.0270167031
 H        -2.2168839237        1.2199736118       -3.0936761355
 H        -1.9653927176        3.5049855158       -5.4328804447
 H        -0.4874769634        3.2626633312       -6.4995461008
 H        -0.7437466562        4.7655376130       -5.5354882969
 H         1.6780281347        3.3154384586       -5.7463387476
 H         1.7902704041        4.3778567795       -4.4109056175
 H         1.9749247441        2.7684571755       -3.9743341387
 Na        1.3073592771       -1.0872965803       -2.9668755169
