155

 C         0.3150982417       -4.8865327271       -4.8848122884
 C         1.2748330796       -3.7280839309       -4.6160939292
 C         2.6944310710       -3.8214433756       -5.3065789307
 C         3.6631281055       -2.9288539502       -4.4298975585
 C         5.1671044508       -3.0340828183       -4.5798983516
 C         3.3392138120       -5.1745465430       -5.6398568530
 C         2.6607112377       -2.8986818560       -6.6325753864
 O         0.8396868169       -2.7161907399       -4.1235930473
 O         3.2498099929       -1.8699892970       -3.9986589367
 C         5.7603216421       -3.0925149362       -3.1356267952
 C         5.0258317047       -4.0260928944       -2.1439820732
 C         5.4832186016       -4.1171139001       -0.5706490124
 C         4.6488192610       -3.2323512524        0.2844039729
 C         3.2824061701       -3.8606568785        0.7275570518
 O         3.9221388164       -4.4963644679       -2.3572542218
 O         4.9884591716       -2.1205068714        0.6960090531
 C         5.4078906233       -5.6056672115       -0.0795448860
 C         6.9758611938       -3.6894407085       -0.1967403661
 C         2.2089327862       -2.8090711454        1.0288374707
 C         2.2009283880       -1.8899380695       -0.1589518528
 C         2.0591869792       -0.3623053936        0.1158321720
 C         0.4067149380       -0.0617576465       -0.0098644873
 C        -0.4092231527       -0.3284520316        1.2626306608
 C         2.4697853449        0.1739819972        1.4882474448
 C         2.7512555820        0.5393410583       -0.8923589761
 O         2.1045782028       -2.2969012182       -1.2956442333
 O         0.0011789670        0.1962377948       -1.0903902682
 C        -1.8730297469       -0.4533585425        1.0485778178
 C        -2.0264184036       -1.7524835994        0.3175830038
 C        -3.2968747060       -2.1455486124       -0.4218355251
 C        -4.5801347350       -1.8505746399        0.4161865274
 C        -5.7880008382       -1.0862219547       -0.1778457109
 O        -1.0321482351       -2.4889139285        0.2782427689
 O        -4.6627081783       -2.2541777149        1.5508867161
 C        -3.1644090374       -1.3160731232       -1.7192330434
 C        -3.2262979976       -3.6180309418       -0.6452349818
 C        -6.5848110984       -0.4382103983        0.8957294335
 C        -6.0565968087        0.9025894899        1.4559788277
 C        -6.9360332988        1.6469322797        2.5750497838
 C        -6.0820979281        1.3639795606        3.8891596201
 C        -4.7210671978        2.0997573792        4.0725629191
 C        -6.9396899685        3.1567678753        2.2514395529
 C        -8.3393955672        1.1654090463        2.7403156709
 O        -4.9436117229        1.2727935182        1.0519168845
 O        -6.5466517304        0.7079377885        4.8134194775
 C        -3.6063627569        1.1316966789        4.3342695506
 C        -2.7570134805        1.4334216193        5.6121136016
 C        -1.4903209165        0.4921875234        5.8260269454
 C        -0.1873279863        1.2737091035        5.0940206458
 C         0.2027463806        2.6923115027        5.3689244821
 O        -3.0487295651        2.3510338062        6.3966511087
 O         0.5614360469        0.5973113373        4.4255428438
 C        -1.1827579917        0.3062939189        7.3439315637
 C        -1.4746813817       -0.9210977615        5.1616071980
 C         0.9846256131        3.2677739367        4.2259815068
 C        -0.0004973662        3.7814261604        3.0934697637
 C         0.4135783546        4.7559061501        2.0010277009
 C         0.5045989205        3.8096907938        0.7507089225
 C        -0.4565939302        3.7467278586       -0.5024850319
 C        -0.8005001771        5.7267560110        1.7448038860
 C         1.7281216377        5.4409501603        2.4024027407
 O        -1.0844942521        3.1992969915        3.0388678127
 O         1.5051061501        3.1016649560        0.7716908549
 C         0.1604362859        3.3996395113       -1.8111994041
 C        -0.4528405273        4.0832585413       -3.0326955490
 C         0.0094893622        3.4272077614       -4.3826348814
 C         0.0566041305        1.8922444401       -4.1495794246
 C        -1.2382837482        1.0947846807       -3.9345687619
 O        -1.2099222710        4.9895640722       -2.8645835234
 O         1.1022809568        1.1969730423       -4.1144820671
 C        -0.9695669046        3.8096729547       -5.5159959364
 C         1.4981166546        3.8210846414       -4.8283573651
 H         0.6434293024       -5.3923736586       -5.8202842003
 H         0.3022965235       -5.5543662920       -4.0080179445
 H        -0.6883529139       -4.5283339209       -4.8395221475
 H         5.4193399781       -3.8892599697       -5.1714526115
 H         5.5952518525       -2.1217397649       -5.0065205825
 H         4.0150378723       -5.1914813443       -6.5013312103
 H         2.6898144790       -6.0659591363       -5.7790161018
 H         4.1069083934       -5.4697942920       -4.8672234997
 H         3.6359664792       -2.7636902624       -7.1324064428
 H         1.9634699877       -3.3039928377       -7.3818882815
 H         2.3412473975       -1.9037104051       -6.3489674057
 H         6.8434333049       -3.3228824261       -3.2994284933
 H         5.5952353643       -2.1064664299       -2.5697253400
 H         2.9503229093       -4.5464261913       -0.0026939401
 H         3.3701001346       -4.4735231030        1.6552267892
 H         4.4271591713       -5.9499756426       -0.2480614280
 H         5.4184016728       -5.8422365064        0.9072670492
 H         6.0280980347       -6.3259714946       -0.5573410921
 H         7.1740949256       -2.6927654037       -0.2741923166
 H         7.0603425246       -3.9909380033        0.8592959540
 H         7.7146941313       -4.3074289346       -0.7170582040
 H         2.3113001835       -2.2676587257        1.9597744786
 H         1.2215005763       -3.3633927551        0.9854968516
 H         0.0793568109       -1.2651428896        1.7695279338
 H        -0.0408424599        0.4891743490        2.0074817355
 H         1.6963395566       -0.0635681693        2.1692360467
 H         2.4306263388        1.2246660980        1.4761955319
 H         3.4423570368       -0.2596274754        1.7786902980
 H         2.5184680742        1.5262527850       -0.8754785662
 H         3.8284554588        0.3344865844       -0.7418733056
 H         2.5344799265        0.1941705929       -1.8976571730
 H        -2.4878515213       -0.5843006363        1.9318087750
 H        -2.3114993629        0.4422749236        0.5141339659
 H        -5.4499832260       -0.3905281396       -0.9762033704
 H        -6.2920996163       -1.8320454007       -0.8145538954
 H        -2.8166158688       -0.3034244152       -1.6124811376
 H        -4.0851036150       -1.3276574220       -2.3149751230
 H        -2.4590551748       -1.7103993225       -2.3669503750
 H        -3.3594427247       -3.9743398812        0.4039331253
 H        -4.1297772314       -3.9291613653       -1.1427294431
 H        -2.2608951082       -3.8977434604       -1.0471513275
 H        -6.7338183735       -1.1881468972        1.7140955267
 H        -7.6009640429       -0.2663887622        0.5289190029
 H        -4.4298069027        2.7282498052        3.1831784498
 H        -4.8686843078        2.8140434194        4.8641954473
 H        -7.2901147633        3.7308368678        3.0442212529
 H        -7.7797853130        3.3128642669        1.5325403407
 H        -6.0208069135        3.4306883692        1.9561635689
 H        -8.4078626055        0.0882966143        3.0555784917
 H        -8.8484293076        1.7180159510        3.5007023434
 H        -8.8701799834        1.4063211887        1.8104791592
 H        -3.8435390579        0.0538710214        4.3091159296
 H        -2.9265281612        1.1277034110        3.4533859997
 H        -0.6346806382        3.2689459349        5.5779582887
 H         0.6528322716        2.7293967898        6.3628841665
 H        -1.2836973378        1.3209006039        7.7158300946
 H        -0.1960646355       -0.1293362779        7.4727328892
 H        -1.9781459929       -0.3613417865        7.7603927190
 H        -1.2814397961       -0.8275887268        4.1161885038
 H        -0.7404098533       -1.5788037896        5.6753283449
 H        -2.4394614767       -1.4351303421        5.3161947580
 H         1.6032822942        2.5246046134        3.7057605134
 H         1.7717131957        3.9324900562        4.6611559064
 H        -1.1318379287        3.0532433111       -0.1311821519
 H        -1.0389574101        4.5987971503       -0.6668656441
 H        -1.7511302820        5.1063497471        1.9494771339
 H        -0.5606647111        6.2395830336        0.8537357717
 H        -0.9102255537        6.5477709594        2.5321721546
 H         2.0606214326        6.2268268581        1.7411063886
 H         1.5620615967        6.0889707075        3.2991086092
 H         2.5112405677        4.7655603176        2.5753396808
 H         1.2564511730        3.5376840282       -1.7004477770
 H         0.2002363211        2.2754646214       -1.9955821795
 H        -1.9879408292        1.5155387144       -4.6185878479
 H        -1.0634691746        0.0816871774       -4.3017632252
 H        -1.6546080586        1.0314832817       -2.9075427253
 H        -2.0093857538        3.6151777837       -5.3075087201
 H        -0.8000848830        3.1021300454       -6.3806670878
 H        -0.8239508137        4.8157228634       -5.8815781745
 H         1.7913512818        3.2173098225       -5.6987175610
 H         1.5735493344        4.8626764572       -5.0715258696
 H         2.3106928812        3.7283153109       -4.0579054695
 Na        1.3449156260       -0.8554545592       -2.9714192711
