155

 C         1.5773716696       -4.8598557710       -3.8569773488
 C         1.8258730479       -3.5374444961       -4.3811497455
 C         3.0799351843       -3.2415229680       -5.2830740103
 C         4.1369285853       -2.4236477431       -4.3861224854
 C         5.5492432268       -2.8202646366       -4.1547630474
 C         3.5415904113       -4.3606903347       -6.2646228638
 C         2.7070005912       -2.1730109557       -6.3605302205
 O         1.0156180000       -2.5844735846       -4.1923424488
 O         3.7242691300       -1.2903579279       -4.1217795557
 C         5.9912534190       -2.9774669654       -2.6701314608
 C         5.3591513996       -4.2501079788       -1.9906255977
 C         5.8223509059       -4.5653004216       -0.5379844459
 C         4.9951540155       -3.4556546150        0.3635811761
 C         3.5143358230       -3.7423136925        0.6564658920
 O         4.6040518029       -5.0201468352       -2.5647154157
 O         5.5804444741       -2.4195930120        0.6195926722
 C         5.5377435811       -6.0962610097       -0.2315511516
 C         7.2944059779       -4.3054032158       -0.4085514342
 C         2.6411033328       -2.5826221348        1.3116780264
 C         2.1372743483       -1.6278988572        0.2164039460
 C         1.7529571080       -0.0317528670        0.4338976457
 C         0.3122070590       -0.0038690679       -0.2353215382
 C        -1.0151212097        0.1889605892        0.6211390324
 C         1.7745516686        0.3406675157        1.9648018391
 C         2.7909926021        0.8264794021       -0.3961151366
 O         2.2429517172       -2.0075753565       -0.9022052662
 O         0.2071088737       -0.1135828561       -1.4752810270
 C        -2.2855450233       -0.2195419352       -0.1240675818
 C        -2.5449335502       -1.6769824399        0.0080967480
 C        -3.8138028780       -2.3816624548       -0.7300121733
 C        -5.0728536930       -1.9373036052        0.0974098776
 C        -6.1199682768       -1.0459664230       -0.5416537761
 O        -1.6873206419       -2.3948780800        0.5646145293
 O        -5.1623338247       -2.2837372736        1.2485716368
 C        -3.8467293384       -2.1409686821       -2.2921891540
 C        -3.6374332578       -3.9569911253       -0.5274334735
 C        -7.0005251299       -0.4621874048        0.5065808887
 C        -6.2961231485        0.6730355305        1.2929440035
 C        -7.0499211518        1.2416699208        2.6384389207
 C        -6.2566404153        0.6028364815        3.8418539142
 C        -4.8440457478        1.1281522245        4.2129730918
 C        -6.9653917748        2.8232042191        2.4910247254
 C        -8.5361227225        0.8959055689        2.5733781324
 O        -5.2477392117        1.1299091580        0.9515569140
 O        -6.8012422534       -0.2677935156        4.4998439700
 C        -4.0291986714        0.3526033251        5.2247705191
 C        -2.8113154626        1.2307666471        5.6159375943
 C        -1.4637167695        0.6193775750        5.9477557327
 C        -0.2678404005        1.2811210790        5.0618110777
 C         0.0665467713        2.8075225249        5.4903803995
 O        -3.0054092715        2.4479994930        5.6653482845
 O         0.3031644021        0.6070105702        4.2412606062
 C        -1.1572698143        1.0198527258        7.3879471618
 C        -1.3899251794       -0.9455126306        5.7575476976
 C         0.9781851495        3.4468291352        4.4069949084
 C         0.1766059036        3.6191981802        3.1155733869
 C         0.3056873717        5.0092566227        2.0886689395
 C         0.6639207445        4.4128462914        0.7056180823
 C        -0.2491631071        4.6234172788       -0.4610605134
 C        -1.1568721796        5.5563904528        2.1451434196
 C         1.2470157500        6.1733091218        2.5195787837
 O        -0.5975288788        2.7498669228        2.6807311960
 O         1.6963573220        3.7708493365        0.5529960925
 C         0.2429848079        3.8576144546       -1.6482632037
 C        -0.5926912462        4.0261162599       -2.9040790369
 C         0.0936590555        3.4153149198       -4.1727892451
 C         0.1957155606        1.7759291756       -4.1008627681
 C        -0.7809262314        0.8155853465       -4.6567620525
 O        -1.7961587388        4.3461190474       -2.9085978720
 O         1.2267782376        1.3804302716       -3.6209170847
 C        -0.8671925544        3.7909100228       -5.3587526112
 C         1.4556397863        4.0635381895       -4.5711220765
 H         1.5284102175       -5.6077534708       -4.6899150075
 H         2.4642547968       -5.1637959905       -3.2360979306
 H         0.6540975436       -5.0371911779       -3.2988396854
 H         5.6490725568       -3.7026936910       -4.6936264428
 H         6.2002471721       -2.1001473875       -4.5705536101
 H         4.0816517371       -3.9872220162       -7.0920891122
 H         2.6779196913       -4.9207599884       -6.6946398406
 H         3.9728895387       -5.2317924060       -5.7645205132
 H         3.4794571420       -1.7964230092       -6.9709155634
 H         1.9606562158       -2.6581207707       -6.9364225799
 H         2.2080316331       -1.2920760767       -5.9238706753
 H         7.1512640496       -3.0594045041       -2.5635788551
 H         5.6918571165       -2.1443578575       -1.9593531062
 H         3.1512996692       -4.2359536092       -0.2633997019
 H         3.4259288130       -4.4963025729        1.3940486046
 H         4.3625453727       -6.2174236432       -0.4151894450
 H         5.6349141639       -6.4859388222        0.7549922231
 H         5.9931182299       -6.9685387448       -0.8676488342
 H         7.6175150626       -3.3644964409       -0.5946228229
 H         7.6208368107       -4.5107964271        0.6027492087
 H         7.7177189517       -5.0731745416       -1.1125864172
 H         3.2840456104       -2.0004959950        2.0195038370
 H         1.7759653007       -2.9430129539        1.8105854000
 H        -0.9539648820       -0.3737066741        1.5651150362
 H        -0.8724345560        1.2884255474        0.8405516621
 H         1.2305864978       -0.2397275477        2.6887416509
 H         1.5894237252        1.4018692789        1.9507004719
 H         2.7683354825        0.3272472026        2.4139948021
 H         3.6141562591        1.1698167836        0.1101403404
 H         3.1492354916        0.2379101219       -1.2447138381
 H         2.2562817232        1.6942028518       -0.8255771460
 H        -3.0511119157        0.3110762822        0.4203483903
 H        -2.2278685315       -0.0251963345       -1.1769589755
 H        -5.6345375403       -0.2983477534       -1.1633522498
 H        -6.7524487817       -1.8284544033       -1.0632719615
 H        -3.8373853465       -1.0340261067       -2.4608080694
 H        -4.8138496263       -2.4674277254       -2.7162724234
 H        -2.9886354647       -2.4928883619       -2.7489529951
 H        -3.6258505987       -4.2778096193        0.5273412304
 H        -4.3830100955       -4.4104080433       -1.2128965221
 H        -2.7141039665       -4.1620250561       -1.0047757779
 H        -7.2699653189       -1.3455094959        1.0817328474
 H        -7.9733811565       -0.0575833037        0.1547961723
 H        -4.3288861931        1.1139032435        3.2538561266
 H        -4.9056000625        2.1724788670        4.5629833179
 H        -7.1047039916        3.2533056775        3.4262071019
 H        -7.6715097945        3.1605016590        1.6533444420
 H        -6.0290510787        2.9895423777        2.1561447315
 H        -8.7666723912       -0.1400704123        2.6174419606
 H        -9.0363061985        1.4690020890        3.3869223604
 H        -9.0171434969        1.2013141810        1.6654743661
 H        -4.6475285600        0.2953045205        6.1503405296
 H        -3.7782715454       -0.6453823295        4.8091136014
 H        -0.9504856998        3.2030179669        5.5222791387
 H         0.5651792425        2.8244146835        6.4316978590
 H        -1.3378046839        2.0667027040        7.5218289972
 H        -0.1448305717        0.8184102347        7.4720106533
 H        -1.8745508637        0.4242147526        8.0504552050
 H        -1.8477350566       -1.3132291014        4.7958843758
 H        -0.4118100432       -1.3231132783        5.6837699583
 H        -1.9533595871       -1.4889274968        6.5045050035
 H         1.7578722685        2.6723688597        4.1948827070
 H         1.4119167780        4.3544982840        4.8164059630
 H        -1.2938051370        4.3827669234       -0.4155079919
 H        -0.1262915658        5.6527223331       -0.6960261902
 H        -2.0439623337        4.8102143424        2.2187113844
 H        -1.2942318535        6.1936619245        1.3007994896
 H        -1.0900077850        5.9999568536        3.1630302579
 H         1.0501419079        6.8981848647        1.7406645753
 H         0.9975894532        6.6951052330        3.4377141089
 H         2.3149743385        6.0382565277        2.4971179724
 H         1.3039227593        4.1147031160       -1.8849455807
 H         0.1652815540        2.8103837618       -1.3488911030
 H        -0.4233620006        0.6111405998       -5.6745995255
 H        -0.7136678255       -0.0955148979       -4.0453225804
 H        -1.7548156438        1.1853617806       -4.7618151431
 H        -1.9034155499        3.7998703731       -4.9959282768
 H        -0.8113417121        3.1493871015       -6.2856380502
 H        -0.7747301786        4.7223638520       -5.7827207495
 H         1.7231901249        3.7466460438       -5.6084184632
 H         1.5271331204        5.1084628755       -4.6190333082
 H         2.2032682182        3.6146369342       -3.9221501927
 Na        1.6344968093       -0.9276732549       -3.0266635789
