155

 C         1.9982830727       -4.8509818796       -3.8001964694
 C         1.8852293678       -3.4527815972       -4.4537880274
 C         3.1790535363       -2.9516781723       -5.3404164150
 C         4.2590122771       -2.2085664521       -4.4495105802
 C         5.7004375839       -2.8494034901       -4.1587014574
 C         3.6943490410       -4.2210662211       -5.9846007850
 C         2.4497282412       -1.9241597145       -6.2841274347
 O         0.8834228456       -2.8556394150       -4.2723776713
 O         4.0511438473       -1.1087220396       -4.0199679004
 C         5.9186689844       -2.9275230795       -2.6503319023
 C         5.4008095020       -4.3382025109       -2.0290012634
 C         5.8579564529       -4.6801052686       -0.5024639022
 C         4.9993978670       -3.5742301309        0.2063285259
 C         3.5369002474       -3.7608795006        0.6421268045
 O         4.5314593177       -4.9809192105       -2.5397583053
 O         5.4199621241       -2.4465624467        0.2564877468
 C         5.3642547881       -6.0469848161       -0.0626872751
 C         7.3421646031       -4.4988953159       -0.2156938814
 C         2.9953277008       -2.4182518697        1.1612302338
 C         2.3369330234       -1.5732359148        0.0952363681
 C         1.7190335836       -0.1996586166        0.3700647799
 C         0.2776308321       -0.2202427745       -0.3050470319
 C        -0.9432692906        0.0730999673        0.6462285944
 C         1.6084098252        0.2843823140        1.9175567423
 C         2.7261554779        0.8780599490       -0.3832444567
 O         2.2643337495       -2.1200670729       -1.0223721865
 O         0.1144788436       -0.2098883402       -1.5003164082
 C        -2.2901800821       -0.3518148595       -0.1047120625
 C        -2.4350564166       -1.8288004974       -0.0708654784
 C        -3.8124642868       -2.3429961577       -0.6816277627
 C        -5.0391208257       -1.9498286504        0.1741886612
 C        -6.0648501373       -1.0406245532       -0.5553093640
 O        -1.5751551360       -2.4718920621        0.4579412042
 O        -5.2855452458       -2.4823567161        1.2529034633
 C        -3.8761061842       -1.9713093261       -2.2370714897
 C        -3.7218678641       -3.9210983069       -0.4323752794
 C        -7.0777406485       -0.4845836421        0.5377741598
 C        -6.5148030448        0.7809182107        1.2349764802
 C        -7.1444218747        1.2583893779        2.5444081953
 C        -6.2233644372        0.4930377239        3.6738211296
 C        -4.8239648360        1.0340067260        3.8509506428
 C        -7.0219156713        2.7774944548        2.6928274287
 C        -8.6198285030        0.6882733298        2.7404483304
 O        -5.3796944148        1.1918648081        0.8985221799
 O        -6.7372272447       -0.3913222546        4.2816753360
 C        -4.1236170829        0.4406006206        5.1340070018
 C        -2.8995179560        1.2720060367        5.5951521913
 C        -1.4824022839        0.6663420916        6.1231263249
 C        -0.3318594089        1.3114764160        5.2014776018
 C        -0.0217348535        2.8845478324        5.4808805941
 O        -3.1100793257        2.4475897524        5.7311662576
 O         0.2061423684        0.5653331371        4.3983274644
 C        -1.2259238939        1.0742512389        7.6322458883
 C        -1.3890971426       -0.8323184077        6.0060443088
 C         0.8036067470        3.5643718932        4.3070644867
 C         0.0486352516        3.6036770907        2.9396608736
 C         0.1024282495        4.9974616717        2.0825583375
 C         0.6334404510        4.5007720980        0.7196561917
 C        -0.2247776878        4.6630105282       -0.4428485093
 C        -1.2904078082        5.5587044278        2.1290295776
 C         1.2673159054        5.9198061727        2.6741766886
 O        -0.5288511477        2.6866029868        2.4567559976
 O         1.7454032280        4.0246687030        0.7031250479
 C         0.4163698724        3.9207874745       -1.7545406347
 C        -0.6013133214        3.7792644339       -2.8789585840
 C         0.0760888880        3.4024587580       -4.3172472829
 C         0.2922756376        1.9544875612       -4.1153838312
 C        -0.7887208148        0.9296034202       -4.5470547498
 O        -1.7265417984        4.1251383701       -2.8893726208
 O         1.3056737212        1.5575009429       -3.4991047012
 C        -0.8868459864        3.6866264070       -5.4739183067
 C         1.4243522091        4.1279397591       -4.4961615422
 H         1.8733887745       -5.7110317932       -4.4200839930
 H         2.8449893938       -5.0807310820       -3.2124953535
 H         1.1011456779       -4.9072105025       -3.1347739820
 H         5.7661431969       -3.9001333781       -4.5918711749
 H         6.3771662414       -2.1155578629       -4.6866827130
 H         4.6168372134       -4.0132179763       -6.6056236342
 H         3.0253802132       -4.6817759782       -6.7341504659
 H         3.8503785027       -5.0119911579       -5.2153416018
 H         3.1755157088       -1.6111249890       -7.0747715643
 H         1.4919043923       -2.2824812425       -6.7343797606
 H         2.2848900682       -0.9837244364       -5.7372114767
 H         6.9070886958       -2.9735987517       -2.3391753227
 H         5.4548713887       -2.1257460881       -2.1328609377
 H         2.9609455684       -4.1246311161       -0.2156380696
 H         3.4384079254       -4.5890351507        1.4151068781
 H         4.4411094314       -6.4854422102       -0.1138128458
 H         5.6477695644       -6.2953113473        1.0059463318
 H         6.0327485386       -6.7582052275       -0.5011146775
 H         7.5411333899       -3.3653093087       -0.1023138842
 H         7.6153672736       -4.9076389397        0.7507658957
 H         7.9461788967       -5.0088659304       -0.9090434982
 H         3.7982437418       -1.7851866376        1.4634245127
 H         2.2244389344       -2.4653780663        1.9755004981
 H        -0.7420163448       -0.4834591000        1.5314176950
 H        -0.8616394983        1.1701028262        0.8384808651
 H         1.3326916347       -0.5996917546        2.4860185312
 H         0.9080297406        1.1227120567        2.0633652675
 H         2.4773971283        0.4938913705        2.4846241169
 H         3.7172198778        0.9471669981        0.2299689793
 H         3.0847153956        0.6010698306       -1.4116750172
 H         2.2285675418        1.8146943873       -0.5033810826
 H        -3.1259944161        0.2014700500        0.3082419059
 H        -2.1068583509       -0.1234334707       -1.1520656351
 H        -5.4928088022       -0.1766515205       -0.8915732204
 H        -6.5552931481       -1.6000267720       -1.2935679372
 H        -3.7088022541       -0.9396617874       -2.4772429594
 H        -4.7883863181       -2.3494757558       -2.5494149653
 H        -3.0872297071       -2.6174336856       -2.6805920893
 H        -3.3822907836       -4.0210903310        0.5836385003
 H        -4.7035071084       -4.2810429132       -0.6404820843
 H        -2.8638435861       -4.3934523749       -1.0205095432
 H        -7.2157315638       -1.2190593967        1.3431184882
 H        -8.0626100749       -0.3576336547        0.1109639911
 H        -4.2795444695        0.8811912122        2.8811715106
 H        -4.9451087493        2.1083566000        4.0814139189
 H        -7.4881885177        3.0649116667        3.7090584949
 H        -7.6371673811        3.1909521630        1.9046375771
 H        -5.9077668277        3.0830649821        2.5940495647
 H        -8.5132935492       -0.4088203586        2.7743593068
 H        -9.1134806289        1.0330445270        3.6352996196
 H        -9.3366259869        0.7969229646        1.9049315851
 H        -4.8370424328        0.5502775348        5.9644426067
 H        -3.8376126895       -0.5935193215        4.9830482827
 H        -1.0587792679        3.2889562631        5.5011279262
 H         0.6008989702        3.0036810327        6.4161144289
 H        -1.2894571731        2.1826016804        7.6744065549
 H        -0.1545107826        0.8092434481        7.8698348666
 H        -1.9880593493        0.6278324296        8.2025426048
 H        -1.2670314865       -1.1755781317        4.9900699818
 H        -0.4349546699       -1.1791433054        6.4974314958
 H        -2.1967691461       -1.4295364751        6.4403413355
 H         1.6615874570        2.9690671901        4.1267007643
 H         1.0817743344        4.4970346843        4.7678362257
 H        -1.1463756649        4.0551680526       -0.1883286144
 H        -0.5344486605        5.6668908501       -0.8795499699
 H        -1.8876595503        4.8629327149        1.6743199350
 H        -1.2611483460        6.4956738384        1.5006823845
 H        -1.6482350348        5.6125687423        3.1260978403
 H         1.3861555045        6.9373038860        2.2633010625
 H         0.9543780261        6.1358739649        3.6894104419
 H         2.2650932890        5.4473306549        2.7506803344
 H         1.1807555837        4.5641916358       -2.0912003030
 H         0.8160120539        2.9202702181       -1.5209339445
 H        -0.8957148092        0.8163427940       -5.6369282292
 H        -0.6206747264       -0.0434134536       -4.0321473613
 H        -1.7897899960        1.2920415693       -4.1775171236
 H        -1.8039718669        3.1009525721       -5.5971696896
 H        -0.3174395905        3.5331812103       -6.3584705315
 H        -1.2345432855        4.7602735950       -5.6084937353
 H         1.5935144821        4.4067556904       -5.5373239693
 H         1.4798456671        5.1372580970       -3.9419340665
 H         2.2422053787        3.4869679253       -4.1151649871
 Na        1.8434168401       -0.7951137644       -3.1582638770
