155

 C         1.8116766568       -4.7917826017       -3.9444979071
 C         1.9686797448       -3.4222233981       -4.4583907615
 C         3.2007092404       -2.9076090999       -5.3054150036
 C         4.1997505837       -2.3080032977       -4.2402429482
 C         5.5509862389       -2.9771479544       -3.9793225271
 C         3.7698040692       -4.0295638676       -6.1969569457
 C         2.6498909660       -1.8317779876       -6.2758512193
 O         1.1448085193       -2.5654187586       -4.0288681001
 O         3.9592009874       -1.2187785056       -3.6944940237
 C         6.0992664736       -3.0483531799       -2.6123897273
 C         5.5116905068       -4.3903387023       -2.0340947134
 C         5.7601799815       -4.5515144333       -0.5103533817
 C         5.0710252177       -3.3294408040        0.2474250400
 C         3.7502108728       -3.6095398367        0.8918583367
 O         4.9667481100       -5.2615596520       -2.7302128585
 O         5.5372561274       -2.2087787864        0.1350180901
 C         5.1452547499       -5.9354650587       -0.2140473285
 C         7.2916252358       -4.4932708802       -0.1288888426
 C         2.8493297014       -2.4474918868        1.0208990952
 C         2.3590443443       -1.6146836015       -0.1797282928
 C         1.7442732511       -0.2626266543        0.3091272286
 C         0.2775432069       -0.2127566714       -0.3781589979
 C        -0.9420000838        0.1201271682        0.5736541165
 C         1.7645867092       -0.0772581708        1.8069516012
 C         2.5179959433        0.9220265251       -0.3595527829
 O         2.5011623210       -2.0194059408       -1.2885106145
 O         0.1024826221       -0.3767079114       -1.5887140487
 C        -2.2623575558       -0.3457025836       -0.0031747135
 C        -2.4398790613       -1.9401187443       -0.0519646197
 C        -3.8148705120       -2.6227726149       -0.7090121462
 C        -5.1170152259       -2.0621931250        0.1993977274
 C        -6.0426966697       -1.0600572228       -0.5522607598
 O        -1.5645510922       -2.6879136706        0.3403290122
 O        -5.2662752382       -2.3847453847        1.3486499701
 C        -3.8431855289       -2.0751353363       -2.1436583277
 C        -3.7017716202       -4.1056541279       -0.6836360848
 C        -7.0758949287       -0.4264735007        0.4065845915
 C        -6.4740640359        0.7208234724        1.2556520641
 C        -7.1171982564        1.1235694796        2.6887676645
 C        -6.1771298918        0.4265772085        3.7542607616
 C        -4.6881701149        1.0526542955        3.8583403667
 C        -7.1782340787        2.7560625057        2.7989949711
 C        -8.5620508307        0.6800787049        2.8523556633
 O        -5.6008178319        1.4084311263        0.7861516377
 O        -6.4588950904       -0.5986991513        4.3487654799
 C        -3.9169459772        0.3869225044        4.9357067468
 C        -3.0043066773        1.3318246684        5.6623790405
 C        -1.6839082899        0.7138786371        6.2110318644
 C        -0.5322361367        1.3493576237        5.2566755634
 C        -0.3574684756        2.9155822296        5.4467152103
 O        -3.1028690997        2.5469655862        5.7495171762
 O         0.1975023443        0.6508446932        4.6036762029
 C        -1.5988677422        1.2149210758        7.7342964985
 C        -1.6122127936       -0.8131976731        6.1678105019
 C         0.6257495535        3.3672198296        4.3571067106
 C        -0.0376848164        3.5677102640        2.9699912120
 C         0.1224801256        4.9094891315        2.1584255450
 C         0.6510630914        4.5550350425        0.7678197404
 C        -0.3136510666        4.4836369433       -0.4236946813
 C        -1.2462314379        5.7201455202        2.0808743571
 C         1.0119312160        5.9046252846        2.8380355674
 O        -0.6627754492        2.6497851460        2.3939412913
 O         1.8343511014        4.2442243878        0.5500875796
 C         0.4559404534        4.1306131049       -1.6976476562
 C        -0.4965287452        3.7794797891       -2.9395070198
 C         0.1015843681        3.4582549086       -4.4173559827
 C         0.4285644107        1.9219094303       -4.1948743613
 C        -0.7076847551        0.9339438255       -4.3870581341
 O        -1.7041409926        3.8879955947       -2.8181064585
 O         1.4597067357        1.5183484017       -3.7044392640
 C        -0.8745498783        3.7299432025       -5.5458726872
 C         1.4242983480        4.2310483840       -4.6378737385
 H         1.8023039405       -5.6293294330       -4.6991808233
 H         2.7055898369       -5.0380031388       -3.3125691069
 H         0.9536805544       -4.9580232698       -3.3728219403
 H         5.4835051944       -3.9584505053       -4.3839355673
 H         6.1564444425       -2.3238595107       -4.6147143176
 H         4.6790271672       -3.6889114924       -6.6573167874
 H         3.1111738242       -4.1883465478       -7.0509625983
 H         4.0280459829       -4.9404163465       -5.6432492444
 H         3.4635856423       -1.5891013545       -6.9487983140
 H         1.8701563821       -2.3149718733       -6.8477961700
 H         2.2618188242       -0.9156489363       -5.8919207203
 H         7.2280388559       -3.1455333358       -2.4976161903
 H         5.7579196585       -2.2628353844       -1.8973673939
 H         3.1696365045       -4.4155495639        0.4449311289
 H         3.9727278812       -3.9761163660        1.8606998727
 H         4.0936515519       -5.9702881480       -0.5330054547
 H         4.9244103396       -6.1356778546        0.8841614912
 H         5.7424113721       -6.7843071008       -0.5854941891
 H         7.6572116020       -3.4971876148       -0.1007035742
 H         7.4883583272       -5.0063882257        0.8518454811
 H         7.8970051785       -5.1576455713       -0.8091908846
 H         3.2785218023       -1.6507350486        1.6623804239
 H         1.9245253691       -2.7672751754        1.4592352936
 H        -0.6064489286       -0.2064308220        1.6331183081
 H        -0.9880750822        1.2129987691        0.4905523842
 H         1.2284835328       -0.8776182437        2.3275677361
 H         1.3989459775        0.8745217549        2.1344745728
 H         2.7534102063       -0.2150541053        2.2896983477
 H         3.4746453961        0.6166359937       -0.5699838093
 H         2.0726352503        1.0779894165       -1.3182439479
 H         2.4267133428        1.9467445535        0.1040174930
 H        -3.0174684541        0.1621316765        0.6534776856
 H        -2.2311406646        0.1028599540       -1.0435359426
 H        -5.4414483573       -0.2024973779       -0.8957849977
 H        -6.6475092011       -1.5648479453       -1.3840867268
 H        -4.0606840353       -0.9845559659       -1.9858299771
 H        -4.6075261669       -2.6995704179       -2.7600812279
 H        -2.8652157214       -2.2044587897       -2.6137651057
 H        -3.5598483038       -4.4034943623        0.3992565555
 H        -4.6113231861       -4.4355639625       -1.2138469693
 H        -2.7252058671       -4.4062470174       -1.0045309529
 H        -7.5595056455       -1.1210367252        1.1071845936
 H        -7.8729568236       -0.1212467090       -0.3016415056
 H        -4.1603636273        0.8524672122        2.9526559209
 H        -4.8091354366        2.1121293270        4.1020402858
 H        -7.3139827188        3.1226380814        3.7611225592
 H        -8.0635493032        3.0691719050        2.2606507332
 H        -6.2693911049        3.0531486988        2.3505752382
 H        -8.8336692216       -0.3809631268        2.8372550450
 H        -9.0621277282        1.1072222850        3.7213938076
 H        -9.0491114861        1.1020070911        1.9891400958
 H        -4.4918076270        0.0095357849        5.7873794757
 H        -3.3550769605       -0.4287496285        4.4762183144
 H        -1.2618652497        3.4955353869        5.4152709785
 H         0.1775700013        2.9052069182        6.3616010176
 H        -1.8072855522        2.2460740429        7.8390175748
 H        -0.5930895104        1.0340852185        8.0016312327
 H        -2.2712183586        0.5483542201        8.2888166001
 H        -1.5511429919       -1.2333661120        5.1757807021
 H        -0.7787414139       -1.1850396014        6.7329644749
 H        -2.4243937932       -1.3204973528        6.6919950094
 H         1.3203036217        2.4825152407        4.1631259035
 H         1.1855439005        4.2044187093        4.8004347357
 H        -1.0983384877        3.8111944200       -0.4239951016
 H        -0.7537860117        5.4008619500       -0.6220439894
 H        -2.0395991916        5.0605873845        1.6149502381
 H        -1.1198856194        6.6917771846        1.7241888472
 H        -1.5431405140        5.7690870692        3.1552573446
 H         1.2271683970        6.7266370992        2.1640867796
 H         0.6218127918        6.4542618031        3.7266242557
 H         1.9274593375        5.4216967075        3.0988444243
 H         1.2042936120        4.9493733144       -1.9414838548
 H         0.9504681549        3.1875012860       -1.4287646098
 H        -1.1269625487        1.1489561303       -5.3592389868
 H        -0.4254439246       -0.0762257021       -4.3263408270
 H        -1.4876566799        1.0844840127       -3.6505806417
 H        -1.8277991387        3.2651257439       -5.3886306034
 H        -0.5983913737        3.3860926918       -6.5784591177
 H        -1.0519868548        4.7759035717       -5.6186088977
 H         1.8637679153        3.7848206925       -5.5583175735
 H         1.1997230374        5.2402532448       -4.8559077145
 H         2.1186373247        4.2930618559       -3.7917398839
 Na        1.8256400865       -0.6683348573       -3.0595475391
