155

 C         1.6032539171       -4.5658866196       -5.6172909429
 C         2.1807312928       -3.2305247460       -4.9701845743
 C         3.5059194814       -2.6289460787       -5.5980695537
 C         4.4981653120       -2.2953458649       -4.2441040886
 C         5.7795971054       -3.0696127322       -4.0668716652
 C         4.0840535703       -3.5010911051       -6.7591700726
 C         3.1449438427       -1.2554449348       -6.1376925548
 O         1.6423740749       -2.6411121220       -4.0583824595
 O         4.1958358819       -1.3685097407       -3.5649319838
 C         6.3932841532       -3.2278720725       -2.6932223600
 C         5.8479219852       -4.5078341447       -1.9236917346
 C         5.7205680928       -4.5406616246       -0.4313001701
 C         4.9580311864       -3.2129686200       -0.0911071739
 C         3.6615989010       -3.5756628191        0.6264052080
 O         5.5511262868       -5.4747132666       -2.5763986623
 O         5.3219180277       -2.0871350378       -0.3639212150
 C         5.1213730090       -5.7850301305        0.0512579850
 C         7.2842208254       -4.3443542275        0.1770155276
 C         2.9218613136       -2.3343542662        1.1731763683
 C         2.4933361148       -1.2911760889        0.0641392330
 C         1.6893183243        0.0173903655        0.6122660053
 C         0.3901644572       -0.2276817680       -0.0148655668
 C        -0.8638537324       -0.5831037056        0.8358318444
 C         1.4907635166        0.1369455741        2.1741482872
 C         2.4753610831        1.2402747616        0.0990956619
 O         2.8360148511       -1.3630431000       -1.1101605057
 O         0.2997082649       -0.0346711742       -1.2312585769
 C        -2.1065980362       -0.8453198322       -0.0195545608
 C        -2.3562906132       -2.3231723560       -0.3366324360
 C        -3.7906319557       -2.6754556486       -0.8152099798
 C        -4.9931837157       -2.0678699600        0.1338302910
 C        -6.0997540509       -1.3780058640       -0.6015685455
 O        -1.4568000604       -3.1366902306       -0.2884220190
 O        -4.9580280350       -2.1448320583        1.3676086401
 C        -3.8820645153       -2.1956534347       -2.3121121446
 C        -4.0226267364       -4.1472430304       -0.6522128416
 C        -7.1681857712       -0.8099085228        0.4094363141
 C        -6.6973659212        0.4355357427        1.1244431641
 C        -7.2204390654        0.6870903523        2.5758972726
 C        -6.0398381950        0.3406284859        3.6134791086
 C        -4.8856377160        1.2367187605        3.6906228454
 C        -7.6385818315        2.1977656515        2.7340057554
 C        -8.4986058659       -0.1267369496        3.0115925466
 O        -5.8889230376        1.1870898268        0.5403396939
 O        -6.0711980152       -0.6697260965        4.2506580992
 C        -3.7290281394        0.7125936277        4.5391736217
 C        -3.4087460049        1.5132739991        5.7623949530
 C        -2.0150497299        1.0848616148        6.4697490031
 C        -0.7954921599        1.4712489674        5.6091424297
 C        -0.5745638812        2.9161521158        5.2044446909
 O        -4.1222271371        2.3746429190        6.1872182344
 O        -0.1283912630        0.5770486829        5.0950931508
 C        -2.0154916437        1.9446570267        7.7657237509
 C        -2.0487511425       -0.4041295108        6.7118748830
 C         0.5069408418        3.1199317200        4.1266092892
 C        -0.1692271689        3.5712937502        2.8641586665
 C        -0.0388746600        4.9682464229        2.2428928579
 C         0.5453542230        4.6861234600        0.7908834027
 C        -0.3078205627        4.1577882634       -0.3233156569
 C        -1.5447307921        5.5512131179        2.1486680856
 C         0.8539560989        5.9906534949        3.0036199019
 O        -0.8650541604        2.7837464776        2.2796881524
 O         1.7169763852        4.8471841405        0.6141297589
 C         0.4156974589        4.2418009564       -1.7179342842
 C        -0.4200754791        3.6462933314       -2.7228165181
 C         0.2564752246        3.3600661997       -4.1627151593
 C         0.4905768401        1.8347209403       -4.1330498233
 C        -0.4766009638        0.8543596140       -4.7280076682
 O        -1.5226111929        3.2143321509       -2.5207723166
 O         1.5639511687        1.5018075642       -3.6450497279
 C        -0.7085732189        3.7447825795       -5.2548257437
 C         1.6862193464        4.0738507228       -4.4009386201
 H         1.2583566931       -4.4784253804       -6.6543435106
 H         2.1653609235       -5.4419741185       -5.6877937148
 H         0.6590551906       -4.8222666829       -5.1196167811
 H         5.6915414375       -4.0630199366       -4.5993359356
 H         6.5407901735       -2.4512654678       -4.6873057378
 H         4.7544743972       -2.8185543431       -7.3760632345
 H         3.1841254230       -3.8502574830       -7.2778682585
 H         4.5120903574       -4.3959520398       -6.3188246895
 H         4.0509450731       -0.7610070588       -6.5705619585
 H         2.4632949911       -1.4169268071       -7.0050688644
 H         2.6572866322       -0.6315503876       -5.4490331419
 H         7.3799949013       -3.5512995944       -2.8472004694
 H         6.3983148507       -2.4211927029       -2.0145757092
 H         2.8734858820       -4.1332929108        0.0551218007
 H         3.9603508332       -4.1711662968        1.5028119553
 H         4.2222399571       -6.0273131520       -0.4743253494
 H         5.0454349161       -5.8547972661        1.1061823463
 H         5.7470071434       -6.6222620049       -0.2138536191
 H         7.6976899564       -3.4475113113       -0.3918473775
 H         7.3059080376       -4.1121737213        1.2403708185
 H         7.8745468466       -5.1253118939       -0.1412574452
 H         3.5807509421       -1.6856940392        1.7976740088
 H         2.0093408610       -2.6194020739        1.7348465753
 H        -0.4335859331       -1.5962163983        1.2593353691
 H        -0.9653820307        0.2905565369        1.5667748423
 H         0.8975717673       -0.7222569336        2.5569775800
 H         0.9189021589        0.9918242579        2.4515894002
 H         2.4906921868        0.2567119491        2.6839775568
 H         2.1721563836        1.5378184768       -0.9871497021
 H         2.3477071072        2.0886955065        0.7700044821
 H         3.5183063166        0.9135751433        0.0377432992
 H        -3.0028938141       -0.3717777427        0.3533602015
 H        -2.1475792155       -0.2975849624       -0.9928746767
 H        -5.7165734594       -0.5245702887       -1.0669053148
 H        -6.5811105263       -1.8682445097       -1.4667285677
 H        -3.5765980354       -1.2157737093       -2.4641020950
 H        -4.8272950786       -2.3597655466       -2.6680097490
 H        -3.1372365534       -2.8307685442       -2.8238740196
 H        -4.1201782656       -4.2862680056        0.4264569996
 H        -4.9687390052       -4.5290108519       -1.0240051980
 H        -3.2632193487       -4.7990705074       -1.1862886701
 H        -7.4571151583       -1.5189559246        1.1865470244
 H        -8.0259847610       -0.5856559862       -0.2180984370
 H        -4.5608706802        1.4193474325        2.6387539294
 H        -5.3231079159        2.1748155093        4.1589638764
 H        -7.4892505294        2.6054243688        3.7928120721
 H        -8.6025645069        2.2644717568        2.2858877754
 H        -7.0564804719        2.9101822546        2.0484802389
 H        -8.4520938882       -1.2547062399        3.1260006913
 H        -8.8767717072        0.2657883507        3.9027052288
 H        -9.2832597043        0.0670695094        2.2726440301
 H        -3.8757946804       -0.2449688872        5.0421240679
 H        -2.8625064036        0.5687122400        3.8940054357
 H        -1.5081601976        3.4450282352        4.9220720457
 H        -0.2550952687        3.5026335414        6.1266401631
 H        -2.2675379323        2.9825276688        7.4106321895
 H        -1.0151597570        1.8424274328        8.3202605479
 H        -2.7668748708        1.6782010100        8.4336506212
 H        -2.0778678530       -1.0332723153        5.8931071081
 H        -1.0572368834       -0.7004637948        7.1692747753
 H        -2.8546265289       -0.7317706183        7.3978533124
 H         1.0485537790        2.2669986387        3.8074251630
 H         1.1728790204        3.7680873564        4.6640425787
 H        -0.7987227171        3.2289582514       -0.2259442735
 H        -1.1673820864        4.8261169774       -0.3174218124
 H        -2.2003614756        4.7907503718        1.8379378407
 H        -1.6046443208        6.3454682194        1.3501140644
 H        -1.7728021785        5.9746983387        3.1369089348
 H         0.6654506525        6.9824420193        2.6224870681
 H         0.7606467916        5.8530825118        4.0971021752
 H         1.8674156442        5.7325418196        2.8365918698
 H         0.9331162303        5.2290684745       -2.0402803137
 H         1.3132793006        3.5905269416       -1.5889163460
 H        -0.0098739834        0.6422379467       -5.7017562072
 H        -0.4043858821       -0.0820188270       -4.1761042212
 H        -1.5845752902        1.0952330287       -4.7478046509
 H        -1.6640521126        3.4217682818       -4.9006968996
 H        -0.5903682790        3.2513849969       -6.2236989183
 H        -0.7787174390        4.8689261560       -5.4977823217
 H         1.7536719063        4.3365136263       -5.4418650277
 H         1.6872153318        4.9940666449       -3.7530885933
 H         2.4632714183        3.3057576376       -4.1860901213
 Na        1.8787797599       -0.6066112944       -3.0757925411
