155

 C         2.0871343713       -3.0566268942       -6.6051587134
 C         2.6657729959       -2.3688509799       -5.3830485092
 C         4.0011353921       -1.7247559307       -5.5407006266
 C         4.8236949466       -1.9919220494       -4.2856100526
 C         5.9608043643       -3.0242088264       -4.3749475747
 C         4.7332117341       -2.1839340904       -6.8752916907
 C         3.8269871741       -0.1321030251       -5.5451233722
 O         2.0148684321       -2.2151810990       -4.3848142497
 O         4.5193864494       -1.4870027274       -3.2088316303
 C         6.5946761504       -3.1684682023       -3.0382914315
 C         5.8528291575       -4.2644264823       -2.2343174383
 C         6.2408289408       -4.3826812819       -0.7257521713
 C         5.1445677088       -3.7209107299        0.2886933124
 C         3.6792360951       -4.1645559492        0.3972484160
 O         4.9494569014       -5.0107408950       -2.6440205756
 O         5.5122834003       -3.0789377535        1.2055061123
 C         6.4103791990       -5.7941708192       -0.1953863150
 C         7.5884548362       -3.6295607303       -0.4708927021
 C         2.8388565882       -3.1242910277        1.2137848370
 C         2.5853556742       -1.8770598701        0.3195010921
 C         1.9265784474       -0.5957219266        0.7690661662
 C         0.5681782394       -0.3717288341       -0.0427629407
 C        -0.7891470515       -0.1790687964        0.7563322008
 C         1.6563569667       -0.5821553794        2.3134765186
 C         2.9075433681        0.5312179414        0.2935409404
 O         3.1887362559       -1.9604920880       -0.7723561970
 O         0.6086717595       -0.3904734940       -1.2530494069
 C        -1.9401667330       -0.5691262554       -0.2734936206
 C        -2.1842332678       -2.1276753301       -0.3422481589
 C        -3.5221375430       -2.4983057424       -0.9252252681
 C        -4.5273656051       -2.4526750281        0.2013386802
 C        -6.0381772586       -2.5185567737       -0.1099217311
 O        -1.2386021180       -2.8768178772       -0.1043914546
 O        -4.1492857319       -2.5780581369        1.3520740601
 C        -3.9127657453       -1.5414877098       -2.0498111574
 C        -3.5423030520       -3.9980905652       -1.5150549816
 C        -6.8142330729       -2.0997015415        1.1883291962
 C        -7.1667138673       -0.6149148044        1.1808416189
 C        -7.7641532165        0.0523142086        2.4501416556
 C        -6.6509092235       -0.0577854280        3.5854583127
 C        -5.5600263637        0.9679104803        3.7312912637
 C        -8.0212092378        1.5781448908        2.1454927219
 C        -8.9694027290       -0.7766015856        3.0049212190
 O        -6.7237096939        0.1196146687        0.2963814781
 O        -6.6765070676       -1.1211546792        4.2361477146
 C        -4.7041594293        0.7964367776        5.0386708183
 C        -3.7376506555        1.8710452688        5.1207000706
 C        -2.6630012172        1.7058775767        6.2490890731
 C        -1.1972530043        1.9382079745        5.5610624589
 C        -0.8065611079        3.4668707308        5.3732659733
 O        -3.6984619061        2.8689499634        4.4118484372
 O        -0.5236462965        0.9767583693        5.3008934597
 C        -3.0443156844        2.9120838485        7.2839168230
 C        -2.6514323772        0.2925776404        7.0120070483
 C         0.2529149946        3.6341488498        4.3481277538
 C        -0.2521711081        3.6505803126        2.8490833511
 C        -0.8742427031        4.9385865556        2.2699168093
 C        -0.0440159510        5.1938461204        0.9689487282
 C        -0.4713440702        4.2725095337       -0.2654776767
 C        -2.3933408063        4.6596994123        2.0438247340
 C        -0.4743396556        6.1276658554        3.2406852694
 O        -0.1803390027        2.5783355842        2.2314190765
 O         0.9040597065        5.8996900472        0.9216115281
 C         0.4313795158        4.1962973002       -1.4527226210
 C        -0.2151403621        3.7297079273       -2.7185214533
 C         0.5925504156        3.3049511399       -4.0054986502
 C         0.5639305414        1.6838791325       -4.0235218176
 C        -0.8709049056        0.9319023187       -4.1301962713
 O        -1.4166933669        3.7081156941       -2.7715630545
 O         1.5122099834        1.0002639029       -3.6440534891
 C        -0.1765198348        3.6078727282       -5.2947853495
 C         2.0508180355        3.7632850499       -3.9911443177
 H         1.0063198504       -3.1819753799       -6.6536441745
 H         2.4664756705       -2.8785356580       -7.6253430632
 H         2.3687038661       -4.0405648637       -6.5777459865
 H         5.6344519431       -4.0324809506       -4.7631619234
 H         6.6541196895       -2.5884471076       -5.1627472569
 H         4.9316176476       -3.2180963529       -7.0273769832
 H         5.6897798992       -1.6275062047       -7.0458684378
 H         4.0722364432       -1.8787059044       -7.7308240736
 H         4.7876057684        0.4090857678       -5.5540659355
 H         3.2715793299        0.2034561910       -6.4380535249
 H         3.2468094803        0.1189983657       -4.6852412041
 H         7.7063846597       -3.4533617641       -3.1212483626
 H         6.4663064655       -2.1381578549       -2.5174906041
 H         3.2438281547       -4.4387950833       -0.5297245403
 H         3.7488229349       -5.1073234277        0.9262689504
 H         5.6457524130       -6.4822176601       -0.6761875017
 H         6.3122063567       -6.0175280993        0.8372054501
 H         7.3853225383       -6.2599080021       -0.5150119136
 H         7.6643040329       -2.6604459876       -0.8516087250
 H         7.6402191146       -3.5229273762        0.6324615046
 H         8.3982822505       -4.1534514027       -1.0608076621
 H         3.3965605824       -2.5481264471        1.9398916427
 H         2.0050681657       -3.7439618304        1.6658730709
 H        -0.7003629029       -0.9768105606        1.4335951360
 H        -0.7836220622        0.7478348625        1.2469113749
 H         1.1081656521       -1.4679744195        2.6834532501
 H         0.9713508978        0.3314054986        2.4469135348
 H         2.5103134844       -0.3496630060        2.9330879869
 H         3.5811144005        0.1284968949       -0.4127769201
 H         2.4926110130        1.4970570630       -0.1445863303
 H         3.5736008032        0.8318695930        1.1915728441
 H        -2.9385850445       -0.2035604708        0.0957671669
 H        -1.6532027576       -0.3605626866       -1.3543892366
 H        -6.4530507368       -1.8060720394       -0.8171612014
 H        -6.2308056300       -3.5471889438       -0.5520553999
 H        -4.3295508703       -0.6284309878       -1.6691818501
 H        -4.6532231961       -1.9094671606       -2.7946833474
 H        -3.1980074339       -1.1473200554       -2.7227172358
 H        -3.3422121142       -4.9655539037       -0.9874886978
 H        -4.5447238354       -4.2777009587       -2.0172941897
 H        -2.8706356925       -3.9473911064       -2.3654259133
 H        -6.2092288915       -2.3579950724        2.0828967104
 H        -7.7682644558       -2.6229179553        1.2738945536
 H        -4.8236594632        1.0748580166        2.9196374923
 H        -6.1400159366        1.8558875036        3.7974156635
 H        -8.4466928861        1.9720015536        2.9979634166
 H        -8.5571439682        1.6142724758        1.3000372009
 H        -7.1874036256        2.2639955805        1.9570267958
 H        -8.5900098634       -1.6727127275        3.3840830892
 H        -9.5450347231       -0.2520436554        3.8080136942
 H        -9.6317860904       -1.0658290763        2.1809271143
 H        -5.3560766852        0.7128210680        5.9107692624
 H        -4.3044013294       -0.1846550462        4.8686899955
 H        -1.6256133389        4.0045969465        5.0236983352
 H        -0.4491275105        3.8175891850        6.3623340191
 H        -3.1380902035        3.9062089951        6.8987691547
 H        -2.3813045690        2.9034524068        8.1354789360
 H        -4.0934536337        2.8068279067        7.7342097703
 H        -2.3066213780       -0.5732741635        6.3462889237
 H        -1.9131386934        0.2973750763        7.7910539480
 H        -3.6246028936        0.0561894376        7.4031251846
 H         0.8502359298        2.7066110143        4.3210228814
 H         0.8601815182        4.5255294913        4.6376696268
 H        -0.7085029135        3.3048170074        0.1223206006
 H        -1.3976230520        4.6356160831       -0.7033441213
 H        -2.5816784925        3.8238920961        1.3585565125
 H        -2.8334285386        5.5185649584        1.7092337378
 H        -2.9307299563        4.3508066573        2.8861087779
 H        -0.6181198826        7.1530200570        2.9015547831
 H        -0.8612446732        5.9523847567        4.1853322258
 H         0.6114712775        5.9414213673        3.3496722844
 H         0.7894579528        5.2101398142       -1.6543967325
 H         1.2101993852        3.5271838086       -1.1692965483
 H        -1.3307918571        1.0671565895       -5.1553153060
 H        -0.7279952641       -0.1147343759       -3.8935190416
 H        -1.4739368519        1.5533078762       -3.4339444932
 H        -1.2936106864        3.4449505413       -5.2612644717
 H         0.2020885111        2.9094421580       -6.0556294097
 H         0.1629353277        4.5296599651       -5.6362211928
 H         2.5779063568        3.2337999045       -4.8324424260
 H         2.0681155312        4.8395987116       -4.3252551105
 H         2.4589227131        3.8308704925       -3.0151576319
 Na        2.3917394951       -0.9043223853       -2.7242889448
