155

 C         2.2125287147       -2.9822358309       -6.8386468885
 C         2.8403624687       -2.2058718412       -5.6890657245
 C         4.3375624528       -1.6829100919       -5.7312001519
 C         4.9780010370       -1.9449039973       -4.2452159199
 C         6.1809219524       -2.8440506274       -4.1704862804
 C         5.1915977193       -2.2707425881       -6.8890409721
 C         4.2468124239       -0.1010444374       -6.0650375516
 O         2.1297712141       -1.9456573024       -4.7343425786
 O         4.6157787015       -1.2022238947       -3.3473187351
 C         6.7409832641       -3.0245322256       -2.7359385034
 C         6.0047423420       -4.1745532054       -2.0767742579
 C         6.3083999282       -4.4885706695       -0.5545909691
 C         5.1157147717       -3.7463952591        0.1326634961
 C         3.6401239521       -4.2288613719       -0.2440851227
 O         5.0107161443       -4.6950583972       -2.5887613092
 O         5.2743865958       -2.8464336236        0.9116730893
 C         6.0347588426       -5.9727981812       -0.1505325045
 C         7.6918617561       -3.8496247961       -0.0817353800
 C         2.5437205661       -3.5288922984        0.5243055528
 C         2.6613665662       -2.0341890675        0.1950649866
 C         2.1376653539       -0.8779530181        1.1595427919
 C         0.7280967953       -0.7284127383        0.5482372380
 C        -0.5425561592       -0.7834143989        1.3085859545
 C         2.0871177982       -1.3307784631        2.6592924111
 C         2.9697836227        0.3333851913        0.9498491961
 O         3.2492691149       -1.6321969646       -0.7614985779
 O         0.6953445904       -0.6059842618       -0.6543810325
 C        -1.9208781237       -0.7405898016        0.4781216503
 C        -2.1683769769       -2.0589836620       -0.2463004066
 C        -3.6543936159       -2.3425670135       -0.6979050175
 C        -4.5716903854       -2.5105978040        0.6042557256
 C        -5.9722811306       -3.1260899136        0.2375781629
 O        -1.3228197698       -2.9272877218       -0.4768639537
 O        -4.1803244154       -2.2472877022        1.7127088825
 C        -4.0530005336       -1.2974084767       -1.6591785432
 C        -3.5386986983       -3.7533109724       -1.3033354308
 C        -6.9737541877       -2.5873897141        1.3461397321
 C        -7.0766526377       -1.0335531568        1.1907113774
 C        -7.8736932759       -0.2567405995        2.2857571261
 C        -6.8252302711       -0.1569684174        3.5592114518
 C        -6.1716726870        1.0882913328        3.8609456672
 C        -8.2046762108        1.1729511652        1.7539473380
 C        -9.0941821176       -1.0414319847        2.6837264028
 O        -6.4276188442       -0.4167836959        0.3603757794
 O        -6.6919340791       -1.1648737470        4.2465109167
 C        -5.1283753647        0.7986190997        5.0739969512
 C        -3.8454420260        1.5987972047        4.9231789618
 C        -2.8893648664        1.7655037952        6.0812815290
 C        -1.3559683576        1.9741423178        5.6489004798
 C        -0.9939701368        3.3642355581        5.1169335665
 O        -3.6100805334        2.0888295957        3.8604664623
 O        -0.5351518811        1.1225434338        5.9818089032
 C        -3.2985170000        3.0615221400        6.8853673914
 C        -3.0200094639        0.5198227596        7.0386677928
 C         0.2897691696        3.3718153196        4.1899021569
 C        -0.0301107762        3.5856013757        2.6827656988
 C        -0.9064552927        4.8717005594        2.1352055987
 C        -0.2825272448        5.3331855198        0.7374866866
 C        -0.7969513471        4.4786736213       -0.4581713623
 C        -2.4969592938        4.5598017023        2.0093678378
 C        -0.8571020530        6.0797938517        3.0126070533
 O         0.2485684455        2.6943202769        1.9374383708
 O         0.4712669113        6.2536385630        0.7000621296
 C         0.1193730803        4.7397341105       -1.6597117734
 C        -0.3692815053        4.0236062005       -2.9207175599
 C         0.6389546364        3.6573897636       -4.0182071189
 C         0.9013998471        2.0950600874       -3.8669630734
 C        -0.2223884311        1.0282072144       -4.1097490533
 O        -1.5225956295        3.6779753724       -2.9809040903
 O         1.9600433496        1.6993139226       -3.4305533165
 C         0.0424475465        3.7684085656       -5.5119649378
 C         1.9731931490        4.4106102178       -3.9072188383
 H         2.8986519196       -3.1684402331       -7.6586357385
 H         1.9674686773       -4.0279036084       -6.5453070164
 H         1.3919248522       -2.5216925828       -7.3597897470
 H         5.9077662432       -3.8205258884       -4.5787550700
 H         6.9463912316       -2.4483758785       -4.8251246411
 H         5.2410701716       -3.3537452800       -7.0626594556
 H         6.2637656465       -2.0629976005       -6.8117149432
 H         4.8575312308       -1.8814800524       -7.8088007845
 H         5.2479971160        0.2041396039       -6.3436046534
 H         3.5123834018        0.1308758420       -6.8400612420
 H         4.0620931321        0.5116902697       -5.1209658311
 H         7.8099745136       -3.0821467867       -2.9112222580
 H         6.5736573819       -2.0129104071       -2.3240424986
 H         3.4807851923       -3.9951151307       -1.3123951435
 H         3.6660332945       -5.2816972480       -0.1162368310
 H         5.3268833688       -6.4428000699       -0.7941270029
 H         5.6789074379       -5.9347200244        0.8910047902
 H         6.8892238934       -6.5769542474       -0.1287418752
 H         8.1322302515       -3.0471925412       -0.6829007042
 H         7.7117585860       -3.5076360262        0.9744867946
 H         8.3644330679       -4.7767577337       -0.0769149226
 H         2.6839881876       -3.5774261244        1.6027989505
 H         1.5912659772       -3.8571551434        0.2374847593
 H        -0.4647780898       -1.8245828596        1.7547520588
 H        -0.4525063129       -0.1497742671        2.2488677036
 H         1.3746685043       -2.0997931978        2.9662760495
 H         1.9447934185       -0.4394587052        3.2969499977
 H         3.0019889627       -1.8603760579        2.9774585428
 H         2.8834837491        0.8077546432       -0.0123267230
 H         2.5652895124        1.1131117879        1.6593927300
 H         4.0522933268        0.0643221399        1.1469439781
 H        -2.7291310631       -0.6923239070        1.1374815323
 H        -1.9543118315       -0.0353349140       -0.3429777250
 H        -6.3419418826       -2.6361714153       -0.6803108578
 H        -5.9467623562       -4.2363682121        0.2018710637
 H        -4.2833375400       -0.2257419911       -1.2922131875
 H        -4.9959175209       -1.5023387414       -2.2635676982
 H        -3.2590890617       -1.1228528361       -2.4354210577
 H        -3.2948970778       -4.5221504519       -0.5793495801
 H        -4.4454756858       -4.0767583596       -1.8470974326
 H        -2.8442407149       -3.9722351909       -2.1910110922
 H        -6.5710911869       -2.8809593692        2.3350950977
 H        -7.9423408613       -3.1099695046        1.2327891960
 H        -5.5011790705        1.4204122539        3.1427109669
 H        -6.8345058912        1.9208908797        4.1314356173
 H        -8.9877412028        1.6139594531        2.2436532661
 H        -8.7071873762        1.0299013211        0.8127131732
 H        -7.2959401729        1.8160830246        1.6248783341
 H        -8.7557100470       -1.9333848677        3.2744308333
 H        -9.6508139360       -0.4600787613        3.3549522991
 H        -9.7333622678       -1.3015135195        1.8331279190
 H        -5.5585948091        1.1643056447        5.9915032972
 H        -5.0436322130       -0.2934730206        5.1001155094
 H        -1.8832369071        3.7138400207        4.5307969083
 H        -0.9183725216        4.0774945055        5.9010085228
 H        -3.3045456954        3.9236762712        6.3070413833
 H        -2.6806184351        3.2884169561        7.7246069011
 H        -4.3210868396        2.9091498142        7.3222221346
 H        -2.9294551966       -0.4574065610        6.5556761831
 H        -2.3074285830        0.7082361012        7.8692227110
 H        -3.9692478421        0.6351003635        7.5218382563
 H         0.9482717981        2.4865799628        4.3034618184
 H         1.0040023259        4.1899389583        4.3848890014
 H        -0.8615551895        3.4562075881       -0.0669285070
 H        -1.8644147171        4.7119593102       -0.6680928122
 H        -2.6548418383        3.7949827513        1.2329121315
 H        -3.0397368073        5.3553618985        1.6083239002
 H        -2.8878555591        4.2404875847        2.9215222368
 H        -1.1336695678        6.9442916745        2.4335369230
 H        -1.5746293395        6.0123163599        3.8345705346
 H         0.1440355970        6.2580538527        3.4068095253
 H         0.2136758874        5.8265744351       -1.7631922897
 H         1.0665897456        4.4517745978       -1.3408557920
 H        -0.1255600522        0.6918721320       -5.1180140174
 H        -0.1967813136        0.1314134060       -3.3873687234
 H        -1.1293118502        1.6198229997       -3.9196002677
 H        -0.9999767318        3.3724889973       -5.5349162681
 H         0.7157327734        3.1968979922       -6.0789116357
 H        -0.0656810352        4.7939607808       -5.9314002828
 H         2.5401908017        4.7963405207       -4.7143912017
 H         1.6796201012        5.3270386919       -3.3658462154
 H         2.6942444554        3.7867025440       -3.3416885654
 Na        2.2494166357       -0.5505521899       -2.7020931981
