155

 C         2.5468330714       -3.0525136321       -4.8523859702
 C         3.0030490072       -1.5849828102       -4.8450678667
 C         4.6158320959       -1.3683120396       -4.9430817730
 C         5.3601017693       -1.2480755368       -3.5619988738
 C         6.8228312556       -1.7162762497       -3.4324260748
 C         5.1781334524       -2.4701033574       -5.9041040387
 C         4.9986351553       -0.0373594718       -5.5807176270
 O         2.1799475321       -0.7168863280       -4.6854664356
 O         4.9670540291       -0.5474081181       -2.6294583853
 C         7.1611415353       -2.6707165787       -2.1593712714
 C         6.5450370440       -4.0669578083       -2.3684257952
 C         6.3788491665       -4.8871749060       -1.0350752568
 C         5.1801427637       -4.1636291173       -0.3372488638
 C         3.7904113443       -4.7300287571       -0.3223465574
 O         5.9994568432       -4.5760692454       -3.3232635850
 O         5.5320850633       -3.1270070683        0.2252594712
 C         6.1353386023       -6.4487991395       -1.3321280619
 C         7.7119935000       -4.7510466505       -0.2075990888
 C         2.7376612840       -3.9055912550        0.3771575288
 C         2.4522477235       -2.4536356380       -0.2253121859
 C         2.1591455904       -1.0614425774        0.7090387165
 C         0.9476132788       -0.2673946902        0.1023203425
 C        -0.3614067534       -0.0859320274        0.9727602658
 C         1.9770259604       -1.3745008027        2.2087110082
 C         3.4607010698       -0.2057876939        0.4359898841
 O         2.5506742399       -2.2982391465       -1.4370023118
 O         1.0164851392        0.2887474890       -1.0035059695
 C        -1.5324484082       -0.6102669712        0.2606767242
 C        -1.8652400126       -2.1367067130        0.1726062405
 C        -3.2785251715       -2.5681230864       -0.3848002871
 C        -4.2770228344       -2.7367821826        0.8993937293
 C        -5.6738851791       -3.2914754364        0.6828822992
 O        -1.1659313908       -2.9527531839        0.6741880323
 O        -3.9472677088       -2.3380769703        1.9937017478
 C        -3.9531869636       -1.5206170843       -1.2838252198
 C        -3.1937743086       -3.9385223184       -0.9349748342
 C        -6.7761834971       -2.8268950450        1.6521865327
 C        -7.5228857338       -1.5780076244        1.2684108728
 C        -8.3540344346       -0.8482836196        2.3809170630
 C        -7.5055275944       -0.6708081578        3.7223522623
 C        -6.3007441075        0.3386001960        3.4797141379
 C        -8.7547815681        0.5059457686        1.9252046819
 C        -9.5728340111       -1.7091184156        2.7973436253
 O        -7.3899635023       -1.0443389905        0.2098672916
 O        -7.7932676872       -1.1394403418        4.7548963106
 C        -5.3285617037        0.3309464355        4.6493582313
 C        -4.0840936742        1.2857952863        4.5117083824
 C        -3.2071596500        1.6323538832        5.7988974474
 C        -1.8284301025        2.0921398388        5.3867900229
 C        -1.5588647024        3.5978732092        4.9099959685
 O        -3.8385995133        1.8089796270        3.4181922687
 O        -0.8658213012        1.3734907765        5.2562301674
 C        -3.9307277213        2.6932920014        6.5789090127
 C        -3.1220388944        0.3237816567        6.7365642054
 C        -0.3062023123        3.7169907840        4.0347412545
 C        -0.7449964454        3.8405456793        2.5734364357
 C        -1.4248821410        5.1077796905        1.8777162718
 C        -0.5241739222        5.4719532034        0.7106330305
 C        -0.8234445322        4.7448425739       -0.6553396333
 C        -2.9437242017        4.7035736978        1.6039968854
 C        -1.4740822998        6.3013764338        2.8517805080
 O        -0.6635558570        2.9202901733        1.7447150433
 O         0.4384205900        6.1812202472        0.8919289889
 C         0.3403563264        4.7017477663       -1.6428961599
 C        -0.0946898023        4.3554309108       -3.0559537404
 C         0.9695987560        3.8116679496       -4.0599602416
 C         1.2082083483        2.3275711183       -3.8020708410
 C         0.0731500970        1.3227083281       -3.8943014803
 O        -1.2586630535        4.3577851502       -3.3742269852
 O         2.3129295191        1.9741502488       -3.3812604412
 C         0.2588124840        4.1557239035       -5.4238648319
 C         2.3371488244        4.6294051650       -3.9954390550
 H         3.2842755922       -3.7334536113       -5.3039513871
 H         2.2064520321       -3.4707036025       -3.9093943885
 H         1.7673963554       -3.2489274320       -5.6189334849
 H         7.0649033722       -2.3772571148       -4.2467881943
 H         7.3674814165       -0.7783065209       -3.5361008991
 H         5.3298098988       -3.4262004590       -5.4907043653
 H         6.2054386655       -2.2627444917       -6.1327316509
 H         4.4288310149       -2.3932809254       -6.7081139387
 H         6.1203093543        0.0590067334       -5.7419609368
 H         4.4450370614        0.0815270085       -6.5701733877
 H         4.6891720182        0.7263494151       -4.9101773966
 H         8.2981025971       -2.7060773835       -2.1570803071
 H         6.8730068215       -2.3600420670       -1.0672716854
 H         3.5968875058       -5.0291098925       -1.3990750810
 H         3.8278616409       -5.6799742614        0.2158014704
 H         5.1292034430       -6.4598480118       -1.6701704647
 H         6.3300132053       -7.0385468151       -0.3794854410
 H         6.8252705204       -6.7146750475       -2.0458732716
 H         7.7014713775       -4.1866666297        0.6982294592
 H         7.8760950584       -5.7395878407        0.2173233059
 H         8.5374452876       -4.3808733401       -0.7664177298
 H         2.9864096218       -3.7848729493        1.4636000681
 H         1.7769667617       -4.5088248349        0.4370936814
 H        -0.2051959844       -0.4386455260        1.9684266244
 H        -0.3585611657        0.9259039531        1.0615804188
 H         1.2355968530       -2.1236917691        2.4501792190
 H         1.6816163335       -0.3690096519        2.5940535140
 H         2.8364610634       -1.7460044987        2.7060594496
 H         4.0887631970       -0.6909491556       -0.3520124939
 H         3.1945055534        0.7719286810        0.0819399384
 H         4.0888684252       -0.1576248588        1.2783852731
 H        -2.4405145387       -0.1237376712        0.7088762466
 H        -1.6125749534       -0.1491531557       -0.7898885850
 H        -5.9579259879       -3.2211764607       -0.3262298443
 H        -5.5558665588       -4.3852627915        0.7571960904
 H        -4.4095284951       -0.8537266954       -0.6133876154
 H        -4.6072381953       -1.9388386139       -1.9874446164
 H        -3.2054310132       -0.9472370208       -1.8363337653
 H        -2.6552374298       -4.6217848174       -0.2778900967
 H        -4.0790799599       -4.5024255136       -1.1447034367
 H        -2.7242312897       -4.0210495995       -1.8222225430
 H        -6.3112304927       -2.7633702705        2.6359535835
 H        -7.3988854217       -3.6778325345        1.8220579302
 H        -5.7965196570        0.4701897245        2.5341287818
 H        -6.8122052746        1.3782085043        3.4572736922
 H        -9.0422307896        1.0786432517        2.8958237685
 H        -9.5508841297        0.4362991991        1.1339822744
 H        -7.9307855740        1.0758734051        1.6658698455
 H        -9.2776098772       -2.7016427394        2.9977825711
 H       -10.0751790006       -1.3061969702        3.7088756440
 H       -10.2946224121       -1.7249721608        1.9455286182
 H        -5.9085515926        0.5879578484        5.5499414851
 H        -4.9569897444       -0.7176935146        4.8862335949
 H        -2.4193764415        3.9329202901        4.2398625405
 H        -1.5483183062        4.1630098632        5.8386811724
 H        -3.8931409223        3.6438865183        6.0424256985
 H        -3.4588490109        2.8179983525        7.5289723571
 H        -4.9334018779        2.3883818259        6.7883220311
 H        -2.5792049590       -0.4820507841        6.2107760472
 H        -2.6084031921        0.6350964451        7.6106521262
 H        -4.1176256035        0.1561499255        7.0867962007
 H         0.2173899776        2.7824251836        4.0585469101
 H         0.3016068639        4.5473981778        4.3550519415
 H        -0.9942867514        3.6798954544       -0.4504260734
 H        -1.7732395154        5.1417781405       -1.1169379054
 H        -2.9426314835        3.6675947979        1.2415244390
 H        -3.2534328303        5.3207856571        0.7033068996
 H        -3.5544710185        4.9692794030        2.5286280598
 H        -1.8058627100        7.2947682439        2.5235311537
 H        -2.1418192569        5.9357595678        3.5863267166
 H        -0.4835400514        6.4240607900        3.3748066026
 H         0.9729068757        5.5594162967       -1.5836720210
 H         1.0202672924        3.8852426916       -1.3216691385
 H         0.0548240795        1.0399640081       -4.9387415223
 H         0.1456051801        0.5646606546       -3.1963939269
 H        -0.8096130528        1.9392485954       -3.7031984860
 H        -0.6656266958        3.5739201534       -5.4551325276
 H         0.8126444467        3.9380326205       -6.3517120451
 H         0.0629020030        5.1963452299       -5.2933139617
 H         3.1757679056        3.9328770379       -4.1440452888
 H         2.5285856008        5.1431307732       -4.9317321716
 H         2.3373551464        5.3631945272       -3.2594787325
 Na        2.6998288528       -0.1711159992       -2.3972257001
