155

 C         3.5256189823       -2.4862015102       -6.5625756304
 C         3.7888773566       -1.8774208283       -5.2407865134
 C         5.0042509391       -0.8914139810       -4.9862630656
 C         5.5262566619       -0.7653412160       -3.4577485167
 C         6.7807279725       -1.3947998840       -3.0306070377
 C         6.2611004695       -1.2775195589       -5.8984966048
 C         4.6435765107        0.5652867589       -5.4055275318
 O         2.9033594302       -1.8770764001       -4.3885036893
 O         4.8180654764       -0.0589441737       -2.7228351460
 C         6.6361659381       -2.2335213168       -1.7207366177
 C         6.0051517608       -3.6240119564       -2.1020931208
 C         5.8759831050       -4.7963470061       -0.9310816033
 C         4.7846859694       -4.4596782300        0.0586256066
 C         3.2836959119       -4.7906189685       -0.2355674073
 O         5.7339222835       -3.7843438572       -3.2505545364
 O         4.9597458836       -3.8346869717        1.0315561702
 C         5.4596734230       -6.0619821491       -1.6915701868
 C         7.2411846018       -4.8044923140       -0.1451455270
 C         2.2294809975       -3.8425660124        0.4119417665
 C         2.4844761611       -2.3726648635       -0.0433851784
 C         2.1833340350       -1.1308935663        0.9569577757
 C         0.9128716754       -0.3740336663        0.3432806582
 C        -0.2391599408        0.1502193632        1.2261062114
 C         1.8677323899       -1.5170465909        2.4425551213
 C         3.4109831087       -0.1363961657        0.9632787163
 O         3.0997476652       -2.1103420030       -1.0454830742
 O         0.9099770178       -0.1451490465       -0.8585834633
 C        -1.5745301076       -0.5974899866        0.7042776912
 C        -1.6025464604       -2.1546079179        0.5939062929
 C        -2.7762840789       -2.7928047749       -0.2464624836
 C        -4.0186709998       -2.5539241047        0.8085107896
 C        -4.8948777543       -3.7388555378        1.3131180732
 O        -0.8426549915       -2.8681836232        1.2404048183
 O        -4.3546488798       -1.4580919392        1.1571932664
 C        -3.0785300526       -1.9820299744       -1.5831319771
 C        -2.5541080518       -4.2763703926       -0.5248688195
 C        -6.1533061261       -3.3183670581        2.2098776860
 C        -7.1048108726       -2.3150229727        1.4396567932
 C        -8.2973607522       -1.6517851768        2.2834610193
 C        -7.4654736240       -1.1291864325        3.5430448795
 C        -6.6108467136        0.1625860865        3.3805702884
 C        -8.9757505030       -0.5903990718        1.4176887215
 C        -9.3358601409       -2.7618301262        2.6368760713
 O        -6.9658533954       -2.0648555635        0.2982142105
 O        -7.4777525542       -1.7847323317        4.5483909967
 C        -5.2446469503       -0.0180087926        4.0625815427
 C        -4.6979211811        1.3034658559        4.6404923967
 C        -3.3563532223        1.2177261927        5.4546285268
 C        -2.2836605084        1.8968145367        4.4109490846
 C        -2.0963123033        3.4228652716        4.4206756324
 O        -5.3252739381        2.3315173242        4.5409887080
 O        -1.7749796480        1.1750946772        3.5997882801
 C        -3.5779089597        2.0425415005        6.6958859863
 C        -2.9069646726       -0.2398104455        5.7991257028
 C        -0.8562620844        3.8789470109        3.4876834650
 C        -1.4098262014        4.0808192092        1.9795990175
 C        -2.0648072509        5.3776665612        1.4677663004
 C        -1.0365984093        6.0599968979        0.4665497096
 C        -0.9953347135        5.3259125210       -0.8227440775
 C        -3.4205022179        5.1792204738        0.7829406537
 C        -2.2939405904        6.3165600552        2.7075560296
 O        -1.0363989141        3.2400091434        1.2190243866
 O        -0.2942766533        6.9721072437        0.8708299659
 C         0.3498467664        5.2476784169       -1.5294648265
 C         0.3075299385        4.6833905324       -2.9009392098
 C         1.6600327611        4.0396490641       -3.4758954567
 C         1.6510918576        2.4522198589       -3.2411928551
 C         0.4523079163        1.6406100611       -3.8772031239
 O        -0.6767864860        4.6140830468       -3.6121700474
 O         2.5576974369        1.9017746605       -2.6773297320
 C         1.6744351713        4.4140628167       -4.9130581892
 C         2.9327333910        4.6230299762       -2.8794499752
 H         2.5098086525       -2.2042664242       -6.8379365700
 H         4.1716339286       -2.2753444915       -7.4440760519
 H         3.4950053863       -3.5300874400       -6.3858485802
 H         7.2278839634       -2.0744454863       -3.8291212824
 H         7.5600815689       -0.6718895537       -2.6041918952
 H         6.6722225099       -2.2262733836       -5.4566838488
 H         7.1164585527       -0.6217660127       -5.7098770362
 H         6.0160446411       -1.2626395981       -6.9760503671
 H         5.5557911557        1.1185427459       -5.6304146015
 H         3.9896932177        0.6264520525       -6.2583354227
 H         4.2543617840        1.1909080353       -4.5291730354
 H         7.6293766077       -2.3020618856       -1.2919960985
 H         5.9418925700       -1.7619557566       -1.1054254802
 H         3.0573052216       -4.8505110341       -1.3062634417
 H         3.1672940305       -5.7827144611        0.2284176952
 H         4.7837136855       -5.9342724978       -2.5844323734
 H         4.8876278724       -6.7897184011       -1.0900156754
 H         6.2988561022       -6.6392366984       -2.0340695815
 H         7.2381448597       -3.8724279523        0.4322420287
 H         7.4493653199       -5.5708137129        0.5666980967
 H         7.9997828481       -4.5554258923       -0.9217267271
 H         2.3281285145       -4.0364274998        1.4774869718
 H         1.2604338791       -4.1826596210       -0.0158654337
 H        -0.0438356804        0.0050116035        2.3283355255
 H        -0.3832647032        1.3281092824        1.1281826358
 H         1.1509518014       -2.3031241262        2.7185065560
 H         1.7411882859       -0.6105701559        2.9897636115
 H         2.7955898960       -2.0080040226        2.8701576132
 H         4.1975363719       -0.5377321539        1.4521610199
 H         3.6095426731        0.1452621514       -0.0569376681
 H         3.0606808854        0.7412464941        1.5615950390
 H        -2.3353498146       -0.3724658349        1.4880198173
 H        -1.8792816008       -0.2414886117       -0.3044346938
 H        -5.0641763727       -4.3143793642        0.4400981628
 H        -4.1755632992       -4.2605384131        2.0046524781
 H        -3.5081999167       -1.0659394874       -1.3702209017
 H        -3.7285001008       -2.7099426675       -1.9869463386
 H        -2.1236104052       -1.9672931147       -2.0427227279
 H        -2.4090075041       -4.8516646342        0.3424136399
 H        -3.3610960122       -4.7997727117       -1.0223209547
 H        -1.6689904126       -4.5243497769       -1.1701313539
 H        -5.9274242709       -2.7601642347        3.1132879046
 H        -6.7102157544       -4.2085840145        2.5091261474
 H        -6.5743394954        0.3008080243        2.3209358054
 H        -7.0965638699        0.9758828023        3.8986462664
 H        -9.4749514568        0.2030358134        1.9739940205
 H        -9.5978196690       -0.9649768983        0.7158780981
 H        -8.2351182619        0.0250869285        0.9821016732
 H        -8.9777855156       -3.5313741395        3.3584888614
 H       -10.2218516084       -2.3212244685        3.0756497154
 H        -9.6419316475       -3.2650686447        1.7439596693
 H        -5.2396343088       -0.8635432576        4.7713384842
 H        -4.5211866277       -0.2192759485        3.2008646003
 H        -2.9419210750        3.9747712116        4.0134752037
 H        -2.0525858755        3.8360310987        5.4015360898
 H        -4.0428570876        2.9397564891        6.4439765370
 H        -2.6628054560        2.2214305807        7.2534539898
 H        -4.1596156735        1.3866074252        7.4118656078
 H        -2.6370797146       -0.8270497780        4.9682857611
 H        -2.0536481831       -0.2469151803        6.4987696828
 H        -3.7285883409       -0.7080151570        6.3692643143
 H        -0.1070607996        3.0883827457        3.3456615994
 H        -0.4004941503        4.8101739350        3.8755484316
 H        -1.4315273409        4.3658850587       -0.7769545261
 H        -1.7103920632        5.8562202965       -1.5067292076
 H        -3.3822341394        4.5249172014       -0.1712268916
 H        -3.9918360133        6.1095881650        0.5321808108
 H        -4.0400729605        4.6292762864        1.5448232390
 H        -2.7523231640        7.2721660239        2.4579928520
 H        -2.9722533952        5.9372809950        3.5275637834
 H        -1.3515400309        6.6239100785        3.0376590069
 H         0.9348297770        6.2729514239       -1.5339276246
 H         1.0922706298        4.6349926681       -1.0132252071
 H         0.7153485878        1.2558039091       -4.8434732974
 H         0.2386265421        0.8302651277       -3.1770217779
 H        -0.4262733251        2.2731901587       -3.8773787964
 H         0.7366468549        4.0529652572       -5.3629336341
 H         2.4929657766        3.9852403522       -5.4511597886
 H         1.6716713876        5.5036395765       -5.0227469060
 H         3.1009193945        5.5818089743       -3.3533550376
 H         2.7899615766        4.8243808814       -1.8452966631
 H         3.7156636021        3.8810160201       -3.2929372796
 Na        2.5686262985       -0.3092834211       -2.4652628260
