155

 C         4.1693067738       -2.2273587824       -5.9614263587
 C         4.0650355150       -1.1014064268       -4.9557035041
 C         5.4708710722       -0.3158489353       -4.6025959968
 C         6.0271663675       -1.0012865029       -3.2691947607
 C         7.0635122986       -2.0878933518       -3.4189179524
 C         6.4538763821       -0.4551512739       -5.7194209223
 C         5.2560244200        1.1757142258       -4.2499473566
 O         3.0183058853       -0.8702539553       -4.4080370602
 O         5.6226092800       -0.7484606953       -2.1590596625
 C         6.9747937588       -3.0500643748       -2.2684971098
 C         5.6483558036       -3.8089504388       -2.0781991173
 C         5.5571543345       -5.0147284946       -0.9906680017
 C         4.8117108756       -4.3128677392        0.3083546779
 C         3.2581884841       -4.4002948073        0.2452550771
 O         4.7772007228       -3.7633974759       -2.9379820200
 O         5.5696886818       -3.7821879519        1.1487703816
 C         4.7515397704       -6.1231065306       -1.8060754575
 C         6.9169877234       -5.5438679526       -0.6074022279
 C         2.6818608843       -3.3145970967        1.1866502081
 C         2.6315427373       -1.9630468818        0.3926462000
 C         1.8745425073       -0.6020347190        1.0101124048
 C         0.6893589922       -0.1889975843        0.1646807325
 C        -0.6432481467        0.1840093944        0.6836473571
 C         1.6067942233       -0.7583323548        2.4774760838
 C         3.1327375912        0.3379084394        0.9352277438
 O         2.9058199602       -1.9371917165       -0.7682600440
 O         0.8543563158       -0.0239112024       -1.0642908872
 C        -1.7357929147       -0.4841244453       -0.0799327667
 C        -1.6823587452       -2.1017347402        0.0129004579
 C        -2.8968885129       -3.0113326920       -0.2831205767
 C        -3.6344029171       -3.2314112071        1.1398614711
 C        -4.7314586638       -4.2434020075        1.1656546148
 O        -0.6022167248       -2.5440352404        0.3477277686
 O        -3.2696042898       -2.6352938185        2.1607307949
 C        -3.9416215555       -2.3005801884       -1.2129025804
 C        -2.3242017352       -4.2801745920       -0.9103799929
 C        -5.8752548412       -3.7504157096        2.0274870825
 C        -6.8482042663       -2.8708464393        1.2038750274
 C        -7.9503693594       -2.0278869100        2.0097612948
 C        -7.3130507038       -1.5297570392        3.3079802731
 C        -6.4128938662       -0.3390673406        3.3023959756
 C        -8.5023218608       -0.8991559808        1.2477915803
 C        -9.1241658535       -2.9909440934        2.2679292575
 O        -6.8328534232       -2.8712236964       -0.0101716183
 O        -7.5165557066       -2.1284564450        4.3485050903
 C        -5.6406192958       -0.2087246620        4.5701820741
 C        -4.8556367033        1.1084967319        4.7297515074
 C        -3.5506191409        1.1751282084        5.5248646417
 C        -2.5270752226        1.7696456681        4.4752704835
 C        -2.7839106802        3.3346485048        3.9752344251
 O        -5.3117465652        2.1535035490        4.2514118328
 O        -1.7063788324        1.0820665832        3.9724404646
 C        -3.7218939230        2.1251825791        6.7858665331
 C        -3.1145046413       -0.1743215077        6.0646898727
 C        -1.5749051300        3.7805876250        3.1288494652
 C        -2.1246174903        4.0628177561        1.6983098107
 C        -2.6795373244        5.4768518825        1.1541909293
 C        -1.5949366306        6.0846999040        0.2384345625
 C        -1.3990920037        5.3822746132       -1.0633544063
 C        -4.0183825094        5.2880498399        0.4175787894
 C        -2.8270514132        6.3812799779        2.4202435105
 O        -2.0115819864        3.1312061657        0.9174398918
 O        -0.8515735846        6.9417734364        0.6517462927
 C         0.0402081492        5.4461336893       -1.5315069846
 C         0.3954525388        4.6962169895       -2.8354982374
 C         1.9601558033        4.4547712393       -3.1695160925
 C         2.0848899077        2.8474913700       -3.3368598203
 C         1.5864856993        2.0477107846       -4.5892845681
 O        -0.5041726433        4.3264865708       -3.5730750822
 O         2.7459161984        2.2538457300       -2.4757047663
 C         2.3410460891        5.0568721712       -4.5101294047
 C         2.8945118512        5.0242845900       -2.1016685301
 H         4.9267913164       -2.9783411628       -5.6089761849
 H         3.2217126011       -2.7058973132       -5.9880260913
 H         4.2487744972       -1.9273739865       -7.0186980405
 H         6.9606792549       -2.6256009450       -4.3147525842
 H         7.9828817868       -1.5851583562       -3.5216737704
 H         6.6602340953       -1.4853018158       -5.9463193565
 H         7.4304921696        0.0668337955       -5.5311975993
 H         6.0810799006       -0.0806112069       -6.6583239174
 H         6.2239276441        1.6273710767       -3.9409463474
 H         4.9496356481        1.6972302584       -5.2087943263
 H         4.5576042553        1.4280255479       -3.4989739218
 H         7.6799453973       -3.9144936127       -2.2574724204
 H         7.1714446261       -2.5690950681       -1.2361623041
 H         2.8997995004       -4.3474990784       -0.7673851252
 H         2.8699102307       -5.4539769136        0.4256816908
 H         3.7483160254       -5.8235575192       -2.0585777832
 H         4.7724496434       -7.1045364407       -1.2589294019
 H         5.2170424779       -6.4447514379       -2.7226169799
 H         7.3908160613       -4.8534682268        0.0981860337
 H         6.9249621532       -6.4878894452       -0.0401633305
 H         7.4491382582       -5.8505643952       -1.5226669427
 H         3.1673929795       -3.3473450784        2.1708429588
 H         1.6533389251       -3.6414273897        1.4020257765
 H        -0.7248286752        0.0706298923        1.7603169885
 H        -0.6872533176        1.2068040417        0.4196449200
 H         0.7502019303       -1.3367274290        2.7002011362
 H         1.3733758372        0.2707330868        2.8918794657
 H         2.4595508786       -1.0934745939        2.9807898886
 H         3.9165593358       -0.0102227131        1.7259513268
 H         3.5458162554        0.4149166711       -0.0602354820
 H         2.7963148865        1.3334637125        1.1583334735
 H        -2.7244471428       -0.1449189679        0.2037411401
 H        -1.6245100103       -0.2719918840       -1.1083527949
 H        -4.9556201163       -4.6157235962        0.1510658304
 H        -4.3498935839       -5.0727172265        1.7828737768
 H        -4.0243310548       -1.3165110177       -0.6808697117
 H        -4.8670260137       -2.9203567237       -1.1423092891
 H        -3.4148716871       -2.3545823186       -2.1448685989
 H        -1.5719212111       -4.8780213765       -0.3051114558
 H        -3.2090802062       -4.9637663211       -1.0531322012
 H        -2.1005324363       -4.1091305959       -1.9146488978
 H        -5.6460086999       -3.1991081255        2.9186581502
 H        -6.5210540137       -4.5818261463        2.3735189349
 H        -5.6932178600       -0.3872435196        2.4103529307
 H        -7.0652412250        0.5102329488        3.0965661922
 H        -9.2681775306       -0.4148270356        1.8170862830
 H        -9.1292217601       -1.2292732255        0.3679609576
 H        -7.7193376414       -0.1308650668        0.8722827576
 H        -8.8027262730       -3.8950068634        2.8278428101
 H        -9.9625944413       -2.5925444593        2.7678300229
 H        -9.4265109105       -3.2834882302        1.2430858440
 H        -6.2873138140       -0.2259824530        5.4211576925
 H        -5.0220953429       -1.1166652834        4.7588376807
 H        -3.7137507955        3.2163602641        3.3860929088
 H        -2.9119197276        4.0801782900        4.7806169535
 H        -4.2199113355        3.1140597995        6.5541339844
 H        -2.7005189133        2.3079170551        7.1366596006
 H        -4.2076882919        1.7089337719        7.6889175572
 H        -2.7552766577       -0.8596616783        5.2510386068
 H        -2.2271291015       -0.0187576416        6.6849100268
 H        -3.7799387722       -0.7081926596        6.6459356281
 H        -0.8007107310        2.9977624595        3.0500063539
 H        -0.9656107230        4.6039051032        3.4281986512
 H        -1.6163437883        4.3194244274       -0.8641831047
 H        -2.0031809644        5.7800841195       -1.8853556285
 H        -3.8791853989        4.7948481104       -0.5731962628
 H        -4.5362806469        6.2658002438        0.1866568790
 H        -4.7677641999        4.6817131529        0.9915523919
 H        -3.3880823811        7.2685347799        2.1395133687
 H        -3.2586581946        5.9628344547        3.3240205226
 H        -1.8088738026        6.7761072608        2.6993365831
 H         0.1450191015        6.4944197340       -1.7932786538
 H         0.5791759981        5.1961976631       -0.6565487326
 H         2.3461959593        2.0730429574       -5.3378770794
 H         1.3413973637        1.0308422047       -4.2968205052
 H         0.7198758002        2.5886141360       -5.0839532744
 H         1.6120727708        4.6942722678       -5.2597046843
 H         3.2357977043        4.6212631113       -4.8821254747
 H         2.4628317300        6.1283375207       -4.6515450694
 H         2.5554577690        6.0089436351       -1.7411268440
 H         2.8669780331        4.2858575238       -1.2689041832
 H         3.9116725286        5.1356014993       -2.3236990298
 Na        3.1065090730       -0.0634665221       -2.1720914873
