155

 C         3.9820689441       -1.8440416017       -6.1252143652
 C         4.2181571180       -1.0677639636       -4.8732561756
 C         5.7199286645       -0.6226222259       -4.4162090039
 C         5.9504760990       -1.2181881760       -2.9549496728
 C         7.0786255924       -2.1257818116       -2.8166380294
 C         6.7740358904       -0.9814175490       -5.4595786339
 C         5.7288793555        0.9127096410       -4.2164785429
 O         3.3003532772       -0.7510957997       -4.1813170481
 O         5.3748456408       -0.7088148106       -2.0233922874
 C         7.0580383189       -3.3951904543       -1.9223774491
 C         5.8191318890       -4.2491984191       -2.2830178207
 C         5.3072220553       -5.1171401685       -1.0658371954
 C         4.7125079472       -4.1542454081       -0.0301875513
 C         3.1969042481       -4.1670581288        0.0896089783
 O         5.4449945384       -4.3882172582       -3.4349410226
 O         5.5040826559       -3.3886929785        0.4826992751
 C         4.2645942569       -6.1501416794       -1.5244491132
 C         6.5401523286       -5.7972881316       -0.3404438099
 C         2.5917417170       -3.0316172829        0.9794644131
 C         2.5724082973       -1.6548000592        0.3371273858
 C         1.6788587815       -0.5070424540        1.0142250818
 C         0.6453384847       -0.0240594382        0.0244060199
 C        -0.7746790766        0.1490776648        0.5745205658
 C         1.0942705312       -0.9025573684        2.4449644332
 C         2.8847863348        0.5880214840        1.2180508750
 O         3.2168612647       -1.3344584946       -0.6700751270
 O         0.8443396961        0.3301619738       -1.1127538582
 C        -1.7527821607       -0.7434316976       -0.1928396440
 C        -1.4674427448       -2.2631611169       -0.1998901859
 C        -2.7215276282       -3.2952091936       -0.4168657595
 C        -3.4950528896       -3.5861642374        0.9212746471
 C        -4.7137731509       -4.5461753331        0.8708126618
 O        -0.3171754237       -2.6517069029        0.0949479958
 O        -3.0723279187       -3.0516061782        1.9359564600
 C        -3.6537183191       -2.6751786932       -1.4858672360
 C        -2.1492397975       -4.5725843459       -1.0311452316
 C        -5.8136223028       -4.0467916674        1.8410142241
 C        -6.6572794013       -2.8762266239        1.2863708484
 C        -7.8337504793       -2.3510679726        2.0613344550
 C        -7.3796497794       -1.7084074793        3.4045867839
 C        -6.3410798502       -0.5696712616        3.2270837246
 C        -8.5782443095       -1.2809123240        1.1919638847
 C        -8.8724391496       -3.4935467943        2.2980759589
 O        -6.3349896671       -2.3566938541        0.2166488879
 O        -7.8467715094       -1.9985136828        4.4821602811
 C        -5.1590131459       -0.5163490653        4.2251700867
 C        -4.8511554562        0.9724815189        4.4911879383
 C        -3.7098525870        1.3195689458        5.4968107397
 C        -2.5073282608        2.0940320560        4.7513593242
 C        -2.7184605404        3.6001951771        4.3052803204
 O        -5.4949310847        1.9459318705        3.9938499585
 O        -1.4705670110        1.4758188344        4.5597572428
 C        -4.2717438433        2.3279623089        6.5947088079
 C        -3.0261680875        0.0925857244        6.1630620755
 C        -1.8753411774        3.8879549130        3.0875564235
 C        -2.5490745094        3.8780822151        1.7642352407
 C        -2.9419615054        5.3193779949        1.0583339505
 C        -1.7569968456        5.9636617265        0.2651346289
 C        -1.3141234776        5.1043758326       -0.9629868970
 C        -4.2223703483        5.0287007558        0.1110027425
 C        -3.4200984147        6.2417473093        2.2251977818
 O        -2.8337522717        2.8692793813        1.1849398588
 O        -1.0830278844        6.8919677436        0.6141004741
 C        -0.0047944823        5.6355895564       -1.4768272976
 C         0.4886770303        4.9110445864       -2.7420825111
 C         2.0733366795        4.7951591195       -3.0507687542
 C         2.3186598756        3.2629112915       -3.0604717505
 C         1.4562888228        2.4697269750       -4.1109443295
 O        -0.3104059113        4.5114464684       -3.5780075618
 O         3.1137463850        2.7753853615       -2.2996772849
 C         2.3463390294        5.1920756998       -4.5110593157
 C         2.9461735424        5.6050476507       -2.1310896800
 H         4.6804280595       -2.7023990246       -6.1894610081
 H         2.9031561621       -1.9816511394       -6.1239913419
 H         4.3163411627       -1.3081535876       -6.9912652207
 H         7.2145930239       -2.5709407397       -3.8625820052
 H         8.0403840961       -1.5542135383       -2.4591688624
 H         6.7586231804       -2.0426736778       -5.6125647863
 H         7.7969854385       -0.8059993846       -5.1422163703
 H         6.5703948955       -0.4515215294       -6.3476839726
 H         6.6689317846        1.3152485227       -3.7931697342
 H         5.5772409646        1.3918620136       -5.1865459551
 H         4.9777973174        1.1987474727       -3.4961390324
 H         7.9762529378       -3.9262170215       -2.3172211612
 H         7.2414618323       -3.2948287601       -0.8459889341
 H         2.7221343165       -4.0931079809       -0.9586283956
 H         3.0078222000       -5.2126043417        0.3266583827
 H         3.3740831419       -5.7478780711       -1.9154417789
 H         3.9855096960       -6.5759013532       -0.6405368051
 H         4.6838246660       -6.8743776259       -2.2541862430
 H         7.1532056146       -5.1334129002        0.2668134137
 H         6.1340969443       -6.6052331588        0.2679710849
 H         7.3203272007       -6.0756606378       -1.1050027687
 H         3.0693739598       -3.0994605578        1.9646747114
 H         1.5438969084       -3.1816219613        1.2671631336
 H        -0.7664210925       -0.0915349127        1.6868418662
 H        -1.1558082521        1.1519911183        0.1908328421
 H         0.4623848767       -1.7421361305        2.3813643823
 H         0.6425048377       -0.0889225772        2.9541345712
 H         1.9177882140       -1.1811278311        3.0897527864
 H         3.7855088325        0.1299227172        1.6382780369
 H         3.1035356289        0.9898396153        0.2160408273
 H         2.6343406791        1.4527945120        1.9264900629
 H        -2.7566870337       -0.5462169502        0.2086446057
 H        -1.8452052106       -0.5282157148       -1.3054277558
 H        -5.0650472557       -4.5280193054       -0.1557168232
 H        -4.5242876667       -5.5910796956        1.1428419186
 H        -3.7766887081       -1.6845138303       -1.2492205931
 H        -4.4812727332       -3.2690046664       -1.5009521041
 H        -3.0649076099       -2.6805004709       -2.3453317611
 H        -1.4466965142       -5.0630311245       -0.3370839846
 H        -2.9136296357       -5.2872134679       -1.3483926543
 H        -1.4679108276       -4.2257049407       -1.8315664016
 H        -5.2687377947       -3.8155849065        2.7897913514
 H        -6.5942378461       -4.7885325441        1.9608461385
 H        -6.0125376531       -0.6177224154        2.2230802896
 H        -6.9601586620        0.3476613552        3.4618188721
 H        -9.2096172573       -0.6222371801        1.7144614220
 H        -8.9935302314       -1.8119665495        0.3151926857
 H        -7.8852021398       -0.6055352256        0.8044926134
 H        -8.3405719761       -4.4326574284        2.5456312778
 H        -9.5356650516       -3.1511685553        3.0967617804
 H        -9.4362799067       -3.6759745909        1.4090615091
 H        -5.4691248490       -0.8384334672        5.2605638964
 H        -4.2328535429       -1.0340135270        3.9462820493
 H        -3.8126327192        3.8279104368        4.1152470293
 H        -2.3303956491        4.2385526740        5.1257143343
 H        -4.5220366536        3.2392826177        6.1354687578
 H        -3.4718516521        2.5811514866        7.3182392591
 H        -5.1039445133        1.8080861485        7.2005343589
 H        -2.4271318616       -0.5248296303        5.5252880207
 H        -2.3326985126        0.4709854255        6.9197385410
 H        -3.7009083844       -0.5640330127        6.7397347283
 H        -1.1333374641        3.1707839293        2.8633078595
 H        -1.3267987139        4.8302618480        3.2201944587
 H        -1.2114587804        4.0827401226       -0.6410805780
 H        -2.0756330765        5.0933178667       -1.7923738015
 H        -4.1024332648        4.3050656405       -0.6680257187
 H        -4.5894815607        5.9740248106       -0.3399690831
 H        -4.9926985489        4.6494241524        0.8251820605
 H        -4.1007019028        7.0019027599        1.7940453454
 H        -4.0660148611        5.7064533568        2.9816007123
 H        -2.6151001814        6.8007783935        2.6451974105
 H        -0.0921820856        6.7689277977       -1.6358410232
 H         0.6060691306        5.5697978849       -0.6177180885
 H         0.8422766374        3.1111567522       -4.7651640738
 H         2.1929989779        2.0401934432       -4.7895640892
 H         0.8533483967        1.6492714332       -3.6447696181
 H         1.5288405885        4.9699089780       -5.2530868031
 H         3.2592645224        4.8258154401       -4.8834142455
 H         2.4308053903        6.2558405182       -4.6847037629
 H         2.6301571036        6.5229855506       -1.8009708328
 H         2.9707048470        5.1254454996       -1.2015597797
 H         3.9756851524        5.7201880639       -2.5062041222
 Na        3.2193878458        0.4107621699       -2.2413833388
