155

 C         4.0694280777       -1.8651183964       -6.0638292780
 C         4.2664550374       -0.9721872129       -4.8245630186
 C         5.8092115613       -0.6394055636       -4.4544776238
 C         6.2219202038       -1.1739520977       -3.1074011225
 C         7.3134540957       -2.2533550721       -2.9416562521
 C         6.7803653974       -1.1401723618       -5.5822504737
 C         5.8421860258        0.9246661501       -4.4592171389
 O         3.2245002840       -0.4711521924       -4.2859006773
 O         5.6186668063       -0.8799633939       -2.0890518857
 C         6.9710033682       -3.1227082347       -1.7184810040
 C         5.9498771401       -4.2525721172       -2.2737428704
 C         5.2983674402       -5.1089471595       -1.1081027632
 C         4.4891063523       -4.1554779494       -0.0351699162
 C         2.9309125407       -4.1031183813        0.1376947669
 O         5.7673774776       -4.5061722015       -3.4552849749
 O         5.0850155524       -3.3694497817        0.6158669823
 C         4.3837355028       -6.1837736208       -1.7592106815
 C         6.3060142318       -5.9220823354       -0.3100596847
 C         2.5099447778       -3.0303650248        1.0460242502
 C         2.5169954171       -1.6267803742        0.4163689624
 C         1.7014172395       -0.3652371705        1.1919037061
 C         0.6021715482        0.0187851035        0.1244676241
 C        -0.8488782455        0.1466073492        0.5349069734
 C         1.1778889506       -0.8728384538        2.6152212458
 C         2.6697592063        0.7623494074        1.3854476535
 O         2.9715028556       -1.4987134522       -0.6707586790
 O         0.9595002122        0.4819927395       -0.9939678617
 C        -1.8330259376       -0.7337201189       -0.3608164491
 C        -1.4944478872       -2.2623130498       -0.3866886532
 C        -2.6610672375       -3.3916394420       -0.5365518995
 C        -3.4331389632       -3.4996834832        0.8250437942
 C        -4.5350794413       -4.5703702186        0.7754974216
 O        -0.4028473462       -2.6089812541       -0.0571261813
 O        -3.1095336544       -2.9018304514        1.8104943812
 C        -3.5462702863       -2.8940766794       -1.7094748687
 C        -1.8730993425       -4.7444534645       -0.8166352547
 C        -5.7771079271       -4.2262669360        1.6459037101
 C        -6.5208262214       -2.9353086114        1.2353049870
 C        -7.8207307316       -2.4359387053        2.0667885691
 C        -7.1870480300       -1.7446857128        3.2834300567
 C        -6.2228958767       -0.5519748724        3.0576740550
 C        -8.6114972069       -1.3709343069        1.2970464562
 C        -8.7961160358       -3.5139490764        2.6151935510
 O        -6.1504510837       -2.1994551785        0.3704523558
 O        -7.4933802630       -2.0499962333        4.4142791723
 C        -5.2161925977       -0.4519637528        4.1766304475
 C        -4.8215447951        1.0977957017        4.3917010681
 C        -3.7663792325        1.3298193514        5.5507957122
 C        -2.5936224942        2.1071318719        4.7384450428
 C        -2.9780200967        3.5356500019        4.1778620557
 O        -5.3407539753        1.9743964514        3.8318889001
 O        -1.5170426876        1.5770511081        4.5103885532
 C        -4.3493840290        2.2492222679        6.6483325853
 C        -3.2903157424        0.1370674072        6.1778233380
 C        -1.9262869235        4.0141215589        3.1181742454
 C        -2.6465440942        3.8913231298        1.7545924862
 C        -3.1668472393        5.1873389340        1.1264724407
 C        -1.8203260065        5.7543461450        0.4489760782
 C        -1.3560630927        5.1950118502       -0.9154162119
 C        -4.1936128684        4.8431602385        0.0069062445
 C        -3.6383997660        6.2312690002        2.0835035036
 O        -2.8479561250        2.7960340786        1.2071880573
 O        -1.3957918897        6.8044273372        0.8705809698
 C         0.1714289594        5.5722355126       -1.3041337157
 C         0.4619304169        5.0331346103       -2.6959953654
 C         2.0654279564        4.7835103078       -3.1281281680
 C         2.3973428909        3.2545740745       -3.0555756188
 C         1.7280833814        2.2386442889       -3.9214165225
 O        -0.3755556112        4.8197765767       -3.5217002286
 O         3.2057992952        2.9078091164       -2.1658342666
 C         2.1667586871        5.3890530676       -4.6260059117
 C         2.9497265025        5.5482612948       -2.1669563302
 H         4.6587623040       -2.7282917572       -5.9682455778
 H         2.9792873095       -2.0457273128       -6.1525428964
 H         4.6192184455       -1.4534474906       -6.9310328473
 H         7.3005885891       -2.9135029148       -3.7825548950
 H         8.2104863702       -1.7015223046       -2.8385912390
 H         6.9036830947       -2.2470734005       -5.7785927363
 H         7.7680389481       -0.7216358722       -5.3976738225
 H         6.3417995402       -0.6757945571       -6.5285901634
 H         5.9815352696        1.2711775805       -3.4727399036
 H         6.6888292358        1.2584776372       -5.0006273069
 H         4.9521807996        1.4253602410       -4.9239671354
 H         7.8038800246       -3.6469645722       -1.3609086626
 H         6.5619606697       -2.5244947495       -0.9122010352
 H         2.5443346891       -3.7328753463       -0.7764896343
 H         2.4658027430       -5.1075817409        0.3077774964
 H         3.3842267081       -5.7677138967       -2.0692372883
 H         4.2181106634       -7.0824632917       -1.1050511297
 H         4.9407581360       -6.3850579681       -2.6598954863
 H         7.1491451634       -5.3102634289       -0.0663613236
 H         5.7433647765       -6.2867565685        0.5362672584
 H         6.7864125021       -6.6304921002       -0.8616421574
 H         3.0888058044       -3.0772822701        1.9605796044
 H         1.5318853460       -3.2805616508        1.4508317339
 H        -0.9215272867       -0.1375510837        1.5400774533
 H        -1.1558351751        1.1282758211        0.2903762416
 H         0.3270351279       -1.6242009633        2.4360668869
 H         0.8424513836        0.0299900102        3.1556179534
 H         1.9311095622       -1.3319020519        3.2877769454
 H         3.3854173264        0.4502358761        2.1245558746
 H         3.1866484325        1.0663830786        0.4805705402
 H         2.2043028276        1.6105882797        1.8246150428
 H        -2.8227041326       -0.7260939301        0.1402675045
 H        -2.0142056421       -0.3726109500       -1.3636814880
 H        -4.9639718881       -4.7507558207       -0.2632012242
 H        -4.2319143941       -5.5634418977        1.1167431785
 H        -4.2288765165       -2.1226595120       -1.2227971205
 H        -4.0005851609       -3.8275883924       -2.1649711446
 H        -2.7820184492       -2.4481298772       -2.4923134488
 H        -1.2258837741       -4.9638003886       -0.0114131035
 H        -2.6066139689       -5.4942370666       -0.9489553792
 H        -1.1911721667       -4.6422827039       -1.6755445976
 H        -5.4333072627       -3.9334042541        2.6265452397
 H        -6.4538533850       -5.1137914878        1.6773893570
 H        -5.6809689475       -0.6100044695        2.0661133427
 H        -6.9081302375        0.2588134014        3.1415909645
 H        -9.4322270638       -0.9701544772        2.0119520424
 H        -8.8972366811       -1.7144813757        0.3450931969
 H        -7.9762154630       -0.4844912781        1.0836686616
 H        -8.2416593829       -4.1045700323        3.2881614972
 H        -9.6252400321       -3.0052398962        3.1152347082
 H        -9.1536259917       -4.1412045289        1.7852760276
 H        -5.6523405101       -0.7572995905        5.1296338826
 H        -4.3571231720       -1.0867808832        3.8982254781
 H        -3.9631690536        3.5164110254        3.7876369502
 H        -2.9405142550        4.2084144114        5.0267943156
 H        -4.9583838816        3.0831041474        6.2255276869
 H        -3.4839096007        2.7419433166        7.0790405934
 H        -4.8673866980        1.6760326362        7.3250596092
 H        -2.8586197879       -0.4385089666        5.3372605879
 H        -2.4390298994        0.3023066410        6.8338935750
 H        -3.9821565380       -0.5331393046        6.7036254106
 H        -0.9882370362        3.3248918872        3.1843260948
 H        -1.6403713133        5.0544572826        3.3002740121
 H        -1.5295635912        4.0629287109       -0.8997499442
 H        -2.0331800425        5.5150099887       -1.6718757362
 H        -3.6556985201        4.3548450343       -0.7731578471
 H        -4.4755653661        5.7729305243       -0.3541179068
 H        -4.9750770338        4.2124014836        0.2694244431
 H        -4.0577100113        7.0632083332        1.5257350069
 H        -4.4195718399        5.8215312380        2.6578182599
 H        -2.8164715628        6.7136717480        2.6630815736
 H         0.3042874389        6.6174322079       -1.2796816041
 H         0.8837798988        5.2620469063       -0.4496317045
 H         0.6942271944        2.5640687703       -4.1732108400
 H         2.2048222852        2.0382196129       -4.9064014485
 H         1.7117388224        1.3712827030       -3.3502263792
 H         1.4224134800        5.0461689404       -5.2823277699
 H         3.1590614392        5.2630814252       -5.1915488190
 H         2.0677472504        6.4861739510       -4.6947216367
 H         2.8905837245        6.6743596598       -2.1400182386
 H         2.7992092074        5.3426090499       -1.0766737441
 H         3.9942724599        5.3119420379       -2.3006844820
 Na        3.2284959598        0.3840362333       -2.0324018954
