155

 C         4.0523258281       -1.4463312540       -5.5017797041
 C         4.3148153068       -0.4774398173       -4.3299192843
 C         5.8079550628        0.0085417985       -4.0063901431
 C         6.0297148118       -0.3815055332       -2.5234946125
 C         7.0433389912       -1.4924511753       -2.0795777911
 C         6.7947553365       -0.7247289121       -4.8087278126
 C         5.7616969347        1.5623644916       -4.1585278523
 O         3.3819866094       -0.2061831801       -3.6353197970
 O         5.3535576729        0.1841921025       -1.6705995372
 C         6.6225798207       -2.4188205103       -0.8699708852
 C         6.0618906180       -3.8882295312       -1.2156204644
 C         5.6083844431       -4.6673639188        0.0137828008
 C         4.4490915404       -3.8786433337        0.7482747315
 C         3.0716402768       -3.9693612797        0.2344572131
 O         6.0194734160       -4.3707231350       -2.3208828364
 O         4.7815880649       -3.2950939183        1.7230813405
 C         5.0263939906       -6.0529636631       -0.4205844159
 C         6.6914504377       -4.8719835632        1.0998811222
 C         2.2058201485       -3.0013364638        0.8958883273
 C         2.3067656142       -1.4005111714        0.5215025606
 C         1.1505802560       -0.2915184021        1.0909848880
 C         0.1368564894       -0.1877305688       -0.1724427775
 C        -1.3200140817       -0.5229296074       -0.0633347806
 C         0.3948108610       -0.7752406398        2.3181533853
 C         1.8248164284        1.0263278281        1.4343152514
 O         3.3584098229       -0.9796111493        0.1251993164
 O         0.5452786720        0.2683243612       -1.2418715408
 C        -2.0295826772       -0.8913181253       -1.3708897801
 C        -1.5268671014       -2.2382424874       -1.7773112715
 C        -2.5460826506       -3.4656039086       -2.0393036048
 C        -2.9999125531       -3.9509929577       -0.6683178307
 C        -4.2386230690       -4.8179231535       -0.7479172912
 O        -0.3485098373       -2.4791673477       -1.8223204186
 O        -2.4711246645       -3.6204463593        0.4050479670
 C        -3.6352927572       -2.8367866157       -2.8254264875
 C        -1.8275394542       -4.5548211643       -2.8654521722
 C        -5.1107189266       -4.8248485779        0.4829283500
 C        -6.0236970729       -3.5323223451        0.6514152425
 C        -6.9130289830       -3.3928038953        1.9437833235
 C        -5.9000194483       -2.7037407104        2.9966945228
 C        -5.5662385520       -1.1929073902        2.9435663254
 C        -8.1230489946       -2.4422950762        1.6510034101
 C        -7.3028394604       -4.8090819633        2.5392826281
 O        -6.1128958522       -2.7229438833       -0.2806310757
 O        -5.2888618391       -3.3935340445        3.7586949904
 C        -5.1175210663       -0.7506619177        4.3697026197
 C        -5.4617086728        0.7474057341        4.8031245801
 C        -4.3948144437        1.5502523092        5.8109343786
 C        -3.3307308876        2.3511124805        4.9536862141
 C        -3.5496045779        2.5778538818        3.4157695440
 O        -6.4150009126        1.3054392368        4.2405793877
 O        -2.2860661261        2.8209963558        5.4970687632
 C        -5.1471875766        2.5103708756        6.6410388463
 C        -3.5805520013        0.5197346843        6.7913573317
 C        -2.4991138572        3.5197727154        2.7701177385
 C        -2.7748195373        3.6249053856        1.2460158192
 C        -3.5094040941        4.7741596528        0.5109569486
 C        -2.2481499966        5.5427666485        0.0258835103
 C        -1.4659775909        5.3729474100       -1.4002742305
 C        -4.3825910290        4.3659235485       -0.6297363325
 C        -4.3052367201        5.5335559663        1.5864910419
 O        -2.0982102151        2.8325217656        0.6161960185
 O        -1.6729494706        6.3165146802        0.7886261965
 C         0.0020309963        5.0132018581       -1.2514092546
 C         0.7266289005        5.5915664782       -2.4867025643
 C         2.2473488151        5.0559804265       -2.5597998074
 C         2.2231699811        3.4558642205       -2.6447147781
 C         1.7200184304        2.6731557465       -3.8314667097
 O         0.2879585661        6.3423390369       -3.3190590538
 O         2.8199580147        2.8647003975       -1.7105853747
 C         2.9351020446        5.6322583113       -3.8368446333
 C         3.0373826175        5.4373329385       -1.3155765897
 H         3.9849461783       -2.4282077112       -5.2083043223
 H         3.0259475697       -1.1922139021       -5.8961503945
 H         4.8101146105       -1.3394835585       -6.2953289091
 H         7.3995802812       -1.8975654906       -2.9420391697
 H         7.7789065994       -0.8371030345       -1.7728580655
 H         6.6276886334       -1.7617683838       -4.6717326291
 H         7.7361234610       -0.6666826366       -4.3701820449
 H         6.7984277259       -0.3503982097       -5.8121037717
 H         5.0948464774        2.0146979975       -3.4217181692
 H         6.7285556991        1.9785829225       -4.0269653325
 H         5.6025322116        1.8165329171       -5.2548339094
 H         7.4673993187       -2.4530425799       -0.1688275585
 H         5.7926695109       -1.8553247855       -0.4988321183
 H         3.0299438422       -3.9939754045       -0.9057377084
 H         2.7700245950       -4.9883976054        0.4573819813
 H         4.2291940078       -6.0396321901       -1.1280733782
 H         4.6655479241       -6.6002507078        0.3388001402
 H         5.7969194789       -6.6860065243       -0.9093342689
 H         7.0561246082       -3.9008863070        1.5958072665
 H         6.3450098533       -5.3809393783        2.0454535277
 H         7.5904098000       -5.4060505015        0.7963202494
 H         2.5541470478       -2.9577346401        1.9611162984
 H         1.1213800820       -3.2637641768        0.9797865795
 H        -1.3180131409       -1.4390586558        0.4785389078
 H        -1.8314344757        0.2212025183        0.5836664416
 H        -0.2085606491       -1.7450242770        2.1051373142
 H        -0.1868159512        0.0336531271        2.7594549881
 H         1.2026762066       -1.0108457138        2.9976402252
 H         2.3103643816        1.0808201004        2.4365555482
 H         2.4543928561        1.5686196904        0.7066512970
 H         0.9748901334        1.6299824494        1.6319419228
 H        -3.1161895126       -0.9051761107       -1.1976433980
 H        -2.0474833082       -0.1415162777       -2.2351315244
 H        -4.8588424025       -4.5470415415       -1.6362039861
 H        -3.7311581185       -5.7632127406       -1.0970103494
 H        -4.0659222866       -1.8771942393       -2.4752148825
 H        -4.4224975171       -3.5527909792       -3.1984170253
 H        -3.4100144777       -2.2279043129       -3.7265225446
 H        -0.8731278619       -4.8006205637       -2.3802658469
 H        -2.3526951557       -5.5216084896       -3.0539832244
 H        -1.4369655205       -4.0828433909       -3.8278571225
 H        -4.3439370165       -4.7986358240        1.3000548644
 H        -5.6123347985       -5.7396293996        0.6221629646
 H        -4.8477728093       -1.1741284294        2.1537745811
 H        -6.3191552758       -0.4937479925        2.5298826358
 H        -8.1427053481       -1.8114455404        2.5431106175
 H        -9.0433761129       -3.0160698560        1.3759117820
 H        -7.9967610790       -1.8321648015        0.8286426877
 H        -6.4885353601       -5.5332753518        2.7344483200
 H        -7.7294937439       -4.5850203066        3.4754143349
 H        -8.0498091085       -5.4065552287        2.0062359698
 H        -5.5914890423       -1.4125833897        5.1906474439
 H        -4.0595086938       -0.7221422246        4.4029185108
 H        -3.5992907770        1.5720438119        3.0191143042
 H        -4.5863883932        2.9626246951        3.1631716115
 H        -5.7097993529        3.3073160731        6.0551821224
 H        -4.3856754527        3.0814807422        7.2558642731
 H        -5.8177091432        2.0080269336        7.3101892129
 H        -2.9460406639       -0.2825902678        6.3480435435
 H        -3.0180497654        1.1757716829        7.4638713904
 H        -4.2847859522        0.0442551855        7.4113989641
 H        -1.5224532350        3.0949902960        2.9476990018
 H        -2.5779801586        4.5602071854        3.1651527661
 H        -2.0812390896        4.7432419921       -2.0093294359
 H        -1.6295361756        6.3700217952       -1.8327564329
 H        -4.1669023950        3.4785830736       -1.2464333292
 H        -4.3655026669        5.2374749879       -1.3781765607
 H        -5.4217769118        4.1754817272       -0.1773091630
 H        -4.8531874436        6.3378179580        1.1781938337
 H        -4.9489740056        4.8938288077        2.1543301530
 H        -3.5704766452        5.9904295579        2.2905319679
 H         0.4310213473        5.3030174649       -0.1941946611
 H         0.0589424887        3.9790928522       -1.1889591108
 H         2.3958708917        1.8570538213       -4.1787426553
 H         0.8352116085        2.0246646599       -3.6881898227
 H         1.4504688217        3.3448225510       -4.6088580712
 H         2.2791036602        5.5351847278       -4.6455631016
 H         3.8688340688        5.0860628756       -3.8850147954
 H         3.1601533330        6.7028679480       -3.6669968048
 H         2.7266639130        6.4799466842       -1.1150503713
 H         2.7173522461        4.7539402952       -0.5184892246
 H         4.0687730513        5.3785054990       -1.4915905605
 Na        2.9531829778        0.6835900845       -1.3334618721
