155

 C         5.2780563798       -1.2834574180       -5.5277753728
 C         4.9468047572       -0.3229184316       -4.3365621759
 C         6.1839559883        0.4587788101       -3.6636074844
 C         6.1842652341       -0.2982382880       -2.2526866177
 C         7.2343964714       -1.4438530255       -2.1143786039
 C         7.5447289993        0.3307037215       -4.3730620334
 C         5.7277496734        1.9428736872       -3.6287120787
 O         3.7918623581       -0.2399339455       -3.9731192010
 O         5.3188840792        0.0019133135       -1.4993981653
 C         7.3853249579       -1.9164523590       -0.6346639149
 C         6.1968958281       -3.0119042832       -0.3089040702
 C         5.6849011388       -3.4227871354        1.1182991590
 C         4.1107800288       -3.3024806810        1.0798519764
 C         3.0456315417       -3.9504298834        0.2481984416
 O         5.6152213001       -3.5576585977       -1.2473065293
 O         3.6737999035       -2.4688382912        1.9176689701
 C         6.0045293542       -4.8796459434        1.3845666097
 C         6.2405138539       -2.5631469288        2.2618932013
 C         1.6436588141       -3.3194104225        0.3806106797
 C         1.8105341664       -1.8288968541       -0.0887694763
 C         0.9004186779       -0.7542057193        0.5518517346
 C         0.1640286142        0.0011523784       -0.4753140147
 C        -1.3650778675        0.0403655083       -0.5022302657
 C         0.0830995950       -1.2738549965        1.7596518482
 C         1.9615095731        0.3720858964        1.1576422972
 O         2.6730649932       -1.5713216071       -0.9255619673
 O         0.7464884438        0.6416854024       -1.3347856418
 C        -1.9368085291       -0.4262336245       -1.9427590569
 C        -1.3752630561       -1.8577720123       -2.1078359463
 C        -2.4276898662       -3.0599806958       -2.4334799714
 C        -2.9062594553       -3.6005075217       -0.9998165512
 C        -3.8506213221       -4.7469172941       -0.7766122494
 O        -0.2085043794       -2.0590716491       -1.9727185057
 O        -2.3437681024       -3.1541044141       -0.0034777698
 C        -3.6328787086       -2.5343497809       -3.2193331259
 C        -1.6677064536       -4.2836739085       -3.1600280739
 C        -4.3339522122       -4.8294467942        0.6100568898
 C        -5.5880794569       -3.9438353782        0.8530161211
 C        -6.6628916648       -4.1678432326        1.9385359082
 C        -6.1514343190       -3.3734728165        3.2728893354
 C        -6.4771415811       -1.8306892565        3.2804459186
 C        -8.0396589272       -3.6230976035        1.5281125873
 C        -6.8252304010       -5.6569388005        2.3070140018
 O        -5.8590639102       -3.0621595505        0.0441860093
 O        -5.4489995441       -3.9987225272        4.0289370937
 C        -5.4786316443       -1.2280009446        4.3000451958
 C        -5.7956247421        0.2509967289        4.5963623876
 C        -4.6535527849        1.1075403569        5.3701064052
 C        -3.7256440591        1.3679334660        4.2058413200
 C        -4.0965942044        2.4233509720        3.0998467123
 O        -6.8407034052        0.7813425721        4.3297587580
 O        -2.7752545528        0.6489844845        4.1012984028
 C        -5.3517477679        2.3624436575        5.8452865155
 C        -3.9066756356        0.3139558914        6.4880203602
 C        -2.7756592108        3.0584643862        2.5049150278
 C        -3.1751820240        3.4768741778        1.0739291362
 C        -3.3970377667        4.9708502234        0.6209064054
 C        -1.9076628641        5.5434538722        0.5750140844
 C        -1.2163598823        5.9840259907       -0.7334104638
 C        -4.0666538127        4.9904900345       -0.6918451937
 C        -4.1640311849        5.8134165649        1.6636858409
 O        -3.4892256014        2.5617224558        0.3457381014
 O        -1.2584038791        5.4558249500        1.5705252753
 C         0.2211019157        5.4445337647       -0.8085484467
 C         0.8042814765        5.4693858504       -2.2036174297
 C         2.3686339190        5.0121562781       -2.4172431030
 C         2.2485319634        3.4549018016       -2.4645971031
 C         1.5589093413        2.6920854884       -3.5773538004
 O         0.1411513798        5.8011383195       -3.1495781334
 O         2.8159319503        2.8158072118       -1.5646820119
 C         2.8397305904        5.5481067575       -3.8439491120
 C         3.2608932103        5.4245938695       -1.2247740062
 H         6.3126818634       -1.7714688227       -5.4381969708
 H         4.4718816373       -1.9019883449       -5.6297488414
 H         5.3650958078       -0.6833119558       -6.4644537845
 H         6.9038291455       -2.2826165156       -2.7511877595
 H         8.1644853956       -1.1171325802       -2.4721527603
 H         7.8457920798       -0.7165897722       -4.5490352773
 H         8.2736795375        0.7290283759       -3.7134948706
 H         7.6871247408        0.9176878557       -5.2972558084
 H         4.9267165675        1.9411918398       -2.9027361506
 H         6.4517775132        2.5926325576       -3.2587818124
 H         5.5574794402        2.3562773951       -4.6645397646
 H         8.3106293301       -2.5753360021       -0.4269447823
 H         7.3514781006       -1.1215229108        0.1687793051
 H         3.3269229507       -4.0375466011       -0.7929329803
 H         2.8359885876       -5.0241280390        0.4586809710
 H         5.4383752805       -5.5424767628        0.7096749800
 H         5.6521987864       -5.1211019074        2.4067760275
 H         7.0937581316       -5.1983997689        1.2428544680
 H         7.2379516012       -2.2765426232        2.0174597253
 H         5.7086075198       -1.6094168351        2.3660497926
 H         6.1730289833       -3.0825752829        3.1799542262
 H         1.4232031457       -3.3472247871        1.4167109499
 H         0.8405037236       -3.8250814258       -0.1514139050
 H        -1.8021864304       -0.3901003184        0.3126105752
 H        -1.6660333990        1.0635946217       -0.3410555405
 H         0.0195033231       -0.4707155793        2.5369883852
 H         0.4355523052       -2.0937648298        2.3107733384
 H        -0.9317555204       -1.4470881458        1.4591013590
 H         2.2423596701        0.1619910083        2.2193880844
 H         2.8600309739        0.5553509116        0.5525967075
 H         1.2560031061        1.1830723916        1.2622196409
 H        -2.9934491009       -0.3528679186       -2.0771263614
 H        -1.4248474601        0.2505427098       -2.6438250840
 H        -4.6940056194       -4.4633181931       -1.4184339664
 H        -3.2450491864       -5.5926975025       -1.0639152213
 H        -4.3164356429       -2.0327186536       -2.5720640631
 H        -3.9892291115       -3.3707414915       -3.8428684270
 H        -3.5817463391       -1.7417547588       -3.8717080990
 H        -0.7429370207       -4.3670189117       -2.6662517295
 H        -2.2387146870       -5.1689140165       -3.0708361845
 H        -1.4657427171       -4.0429092402       -4.2591054571
 H        -3.5216785498       -4.3980240838        1.1833271560
 H        -4.4450791917       -5.8854178642        0.9306653538
 H        -6.3853209891       -1.3628176100        2.3113584438
 H        -7.5435267031       -1.7023185197        3.6098611449
 H        -8.6224303123       -3.7031284250        2.3335680368
 H        -8.3859986245       -4.2267752805        0.6553086642
 H        -8.0933419452       -2.5680437738        1.3359017639
 H        -5.9549861724       -6.1071155091        2.8389560424
 H        -7.7372670909       -5.7415830119        2.8748956167
 H        -6.9287199518       -6.2052176273        1.3718798771
 H        -5.5725052453       -1.7304370581        5.2756015300
 H        -4.4364127089       -1.3046100595        3.9173255210
 H        -4.6461637131        1.8047061786        2.3661348706
 H        -4.7392515344        3.2336542924        3.5237286939
 H        -6.0794582665        2.7314805578        5.1949920638
 H        -4.6312791649        3.2226679182        5.9951831956
 H        -5.8946684973        2.2272448726        6.7504280601
 H        -3.2189753066       -0.4015010289        5.9951400980
 H        -3.3671558546        1.0632470335        7.0922819586
 H        -4.4588175939       -0.2679031912        7.1722052052
 H        -2.1609933152        2.2227894263        2.6131001666
 H        -2.4047231344        3.8659620219        3.1352800176
 H        -1.6624538170        5.7920557844       -1.6759401922
 H        -1.1403807050        7.0981879349       -0.5834743304
 H        -3.5457529581        4.4725462113       -1.4555394974
 H        -4.1925170055        5.9793817914       -1.0100011270
 H        -5.0563994354        4.6296749727       -0.5122628906
 H        -4.3419048533        6.8035587422        1.3210148854
 H        -5.1024053391        5.3972658359        1.9883703181
 H        -3.5290302735        5.9017231547        2.5695286840
 H         0.9166797910        5.7857077411        0.0253073650
 H         0.0661854837        4.3413914412       -0.6875526787
 H         1.4181331660        3.2941510237       -4.5399778744
 H         1.9313976175        1.7085258676       -3.8417881911
 H         0.6014238095        2.4467982685       -3.1618056406
 H         1.9986030623        5.4345780289       -4.4768505016
 H         3.8165445115        5.1395682874       -4.1735323256
 H         3.0585333580        6.6549866227       -3.7433406870
 H         3.4788972794        6.4837886841       -1.1785603517
 H         2.8966010383        5.0930734476       -0.2611118689
 H         4.2252619265        4.8921261273       -1.1717774457
 Na        3.0946032130        0.6058049790       -1.9116584539
