155

 C         5.4243233804       -1.3902791138       -5.1719161201
 C         5.1406363926       -0.3569216622       -4.0507524363
 C         6.3852266875        0.1989948996       -3.3986339699
 C         6.3402554046        0.1643323294       -1.7581830462
 C         7.6095419592       -0.4825751838       -1.1012129413
 C         7.7275132315       -0.4462483516       -3.8374096034
 C         6.4853485925        1.7919583277       -3.6369224520
 O         3.9863312472       -0.0137350333       -3.8671912389
 O         5.5299838685        0.7908986934       -1.1600142751
 C         7.1498401237       -1.1389926543        0.2789135003
 C         6.0366921244       -2.1822188453        0.0477611366
 C         5.4951312914       -2.8941008771        1.2979893842
 C         3.9072414846       -2.8887217476        1.2389277616
 C         3.0908009765       -3.8657839934        0.3133171888
 O         5.6202978823       -2.4280685541       -1.0886313237
 O         3.3872666911       -1.9858300634        1.9493536610
 C         5.8491355763       -4.4507361708        1.1066806018
 C         5.9846334664       -2.3266353596        2.7271730766
 C         1.7244139671       -3.2816465387       -0.1035951735
 C         1.8624879598       -1.6976309283       -0.4351280997
 C         0.9443900178       -0.6165590106        0.3717285408
 C         0.1203461133        0.1299141470       -0.8048674959
 C        -1.3513434070        0.2759423400       -0.7912839308
 C        -0.1782430933       -1.2012616593        1.3326273656
 C         1.6470228623        0.4624285725        1.1090104557
 O         2.7930552431       -1.3015125006       -1.1162056002
 O         0.8189964095        0.8442881059       -1.5470622727
 C        -2.1165141562       -0.6283122502       -1.7719870137
 C        -1.7682771466       -2.0545671495       -1.6060401799
 C        -2.8213897879       -3.2233497746       -1.9293749137
 C        -3.2801520521       -3.9498190013       -0.6214832728
 C        -3.6281852493       -5.4333286672       -0.5726265413
 O        -0.6614411974       -2.3774697482       -1.2679584806
 O        -3.3142152395       -3.3080617731        0.4128036410
 C        -4.1629946462       -2.7412856622       -2.5484492028
 C        -2.0678918598       -4.1173042638       -3.0844080813
 C        -4.5836802992       -5.6218385252        0.6051717564
 C        -5.8394054377       -4.7721607528        0.4867509199
 C        -6.7991124978       -4.6884432311        1.6864344653
 C        -5.9479638327       -3.9770574467        2.8189695754
 C        -6.3584040085       -2.4921194037        3.2250893788
 C        -8.0688343488       -3.8485166531        1.4318302541
 C        -7.1819085700       -6.1365057669        2.2557700410
 O        -5.9988973393       -4.1787958759       -0.5840352478
 O        -5.1537879920       -4.5651803836        3.5100203567
 C        -5.2728549745       -1.7085179738        3.9214281270
 C        -5.8826577313       -0.3899131967        4.3543436621
 C        -4.7924030469        0.7395697432        4.9136856214
 C        -3.7727107120        1.1549361340        3.8648420169
 C        -3.8349015116        2.4047395876        3.0659459236
 O        -6.9944751084       -0.0437047926        4.1792260265
 O        -3.0122189510        0.2595131857        3.4762455039
 C        -5.6771947176        1.9611321687        5.4134916273
 C        -4.0406835143        0.2582557479        6.2582134731
 C        -2.6692749444        2.7100437387        2.2109795256
 C        -3.1745836419        3.5333911711        0.9596662359
 C        -3.1904112263        5.1749798515        0.9620145937
 C        -1.7390636711        5.5610093264        0.5754493970
 C        -1.1716257113        5.1481206863       -0.8385393133
 C        -4.1322753621        5.6940034411       -0.1437034792
 C        -3.4684973745        5.6961702205        2.3445523547
 O        -3.6177299688        2.9017359906        0.0734493001
 O        -1.0549176619        6.2620008271        1.3094141547
 C         0.3486870954        5.2231615458       -0.8997095204
 C         0.9924665166        5.4479143776       -2.2946815548
 C         2.5280688558        5.3854601051       -2.4032971842
 C         2.7588244744        3.9289325747       -2.9254859761
 C         2.0907967951        3.3787085043       -4.1846048530
 O         0.3912915354        5.7163335241       -3.2922518502
 O         3.4070721651        3.2360999383       -2.1441639882
 C         2.9887984951        6.3738825597       -3.4757955017
 C         3.3034564720        5.4826806503       -1.0796747887
 H         6.1165366167       -2.1642057386       -4.8062902485
 H         4.5346597812       -1.8397056494       -5.4088167288
 H         5.7746842140       -0.7721208149       -6.0744903533
 H         7.9973233538       -1.3068034019       -1.6455551862
 H         8.2964341910        0.2771535936       -0.8326256811
 H         7.8027009874       -1.4890386822       -3.5693506793
 H         8.5840138702       -0.0098831847       -3.3095031412
 H         7.9647108217       -0.2356308934       -4.8407290057
 H         5.8204535995        2.2684511017       -2.9478965555
 H         7.5154882300        2.0976305725       -3.5878272653
 H         5.8534349607        2.0361392274       -4.5024676727
 H         8.0109992775       -1.6948821912        0.6313522706
 H         6.8422439024       -0.4108519386        1.0569225600
 H         3.7293487729       -4.0486537068       -0.5672990561
 H         2.9941373501       -4.8733633785        0.7873591803
 H         5.3589391223       -4.7899303238        0.1661964854
 H         5.4791068224       -5.0843050751        1.8892226876
 H         6.9918319654       -4.5194007128        0.9508523257
 H         5.1826618260       -1.7189701636        3.2075489140
 H         6.1103956216       -3.2379259668        3.3441049417
 H         6.8600086950       -1.7484246392        2.7023655161
 H         0.9955342184       -3.3921888815        0.7362309588
 H         1.3274090400       -3.9123791047       -0.9055762907
 H        -1.7303534893       -0.0312826361        0.1851251772
 H        -1.5559080913        1.4232992493       -1.0985892339
 H        -0.6090763994       -0.3826887133        2.0075797397
 H         0.3141533718       -1.8542105328        2.0559604620
 H        -0.8434190263       -1.8978146248        0.8589568643
 H         1.9397066181        0.0547393503        2.1206732905
 H         2.4633766384        0.7784740254        0.4016065568
 H         1.0208838592        1.3093316511        1.1627158298
 H        -3.1679357611       -0.5063081736       -1.5409307807
 H        -2.0362949750       -0.1894073473       -2.7423668578
 H        -3.8935320001       -5.7390143553       -1.5839963152
 H        -2.6107040109       -5.7851684533       -0.5146146754
 H        -4.7708814178       -2.1801866015       -1.8540543917
 H        -4.9073079138       -3.5239772987       -2.6055434459
 H        -3.8348192343       -2.3526912353       -3.5164344951
 H        -1.2103450251       -4.5871382249       -2.7786831814
 H        -2.8021174124       -4.7878088327       -3.4708347294
 H        -1.7724003796       -3.2990248684       -3.7947232931
 H        -4.1716445042       -5.2091978239        1.5067630485
 H        -4.7292226961       -6.6774031119        0.8608037041
 H        -6.7559985374       -1.9773446023        2.3102350935
 H        -7.1788735791       -2.5680252903        3.8867669560
 H        -8.5539156593       -3.6621401484        2.2923586034
 H        -8.7585858972       -4.2358569414        0.6404358664
 H        -7.8052910407       -2.9706313518        0.8985833169
 H        -6.4976563418       -6.3939373300        3.1169127948
 H        -8.1892051458       -6.0306442215        2.6965814921
 H        -7.1895245339       -6.8779812923        1.5218363357
 H        -4.9146042121       -2.3229651302        4.7544305220
 H        -4.3489222814       -1.4993359884        3.3041139002
 H        -4.8044586017        2.1620251106        2.5190716733
 H        -4.1120954038        3.1800935125        3.7931101890
 H        -6.2353539735        2.4716739194        4.6207825213
 H        -5.0924873283        2.6826427874        6.0508709917
 H        -6.3303191457        1.6403488746        6.1389975202
 H        -3.4698435366       -0.6727574500        6.1259963144
 H        -3.1770681588        0.9485141285        6.4277901889
 H        -4.6968314786        0.2091483362        7.0667887748
 H        -2.1592033287        1.7623026409        1.9761816386
 H        -2.0071411210        3.3496477729        2.7193761091
 H        -1.3913865926        4.0380772209       -0.8212851924
 H        -1.7423417477        5.5128436867       -1.6898663398
 H        -3.8157397025        5.0799906647       -1.0062526182
 H        -3.9086473036        6.7431214650       -0.2532431587
 H        -5.1977041510        5.5542432137        0.0564554404
 H        -3.4237499067        6.7852732297        2.4044547965
 H        -4.4886776391        5.3304545992        2.5795461959
 H        -2.7897044025        5.3181251373        3.0755322646
 H         0.7332660906        6.0585606983       -0.3114751194
 H         0.6724182783        4.3039346451       -0.2772484500
 H         1.1529969372        2.7863622967       -4.0105773600
 H         1.8834931359        4.0744001552       -4.9587327463
 H         2.7303059434        2.5532577305       -4.4936458203
 H         2.5108919244        6.2004859756       -4.4309941300
 H         4.0308547367        6.1488020026       -3.6231599781
 H         2.9352200733        7.4673512006       -3.1461028849
 H         2.8122953155        6.1616830373       -0.3739931278
 H         3.0594097982        4.5106634883       -0.6389337083
 H         4.3192262627        5.7569299356       -1.1739774878
 Na        3.1851247028        0.8796177075       -2.0994260301
