155

 C         5.4111205750       -1.9532088577       -4.1887465232
 C         5.4030151802       -0.4918045837       -3.7177615418
 C         6.4920294646        0.1640805082       -2.9291868132
 C         5.9438455422        0.4629718955       -1.4234744793
 C         6.9891876171        0.3613261337       -0.2530786804
 C         7.8113057456       -0.6467354532       -2.9075793079
 C         6.6531514984        1.5762968558       -3.5475302361
 O         4.3841403943        0.1936152457       -4.0551629426
 O         4.7981064392        0.7029114154       -1.0883580794
 C         6.5246600563       -0.6179781800        0.8671061168
 C         6.5630612501       -2.0184754947        0.3699982341
 C         5.8950472059       -3.0219154733        1.4083866743
 C         4.3860832638       -2.6340011857        1.4698533902
 C         3.2801935177       -3.2830798893        0.4003094864
 O         6.9214323650       -2.3757266391       -0.7121603420
 O         4.0595330498       -1.7190097803        2.1729272610
 C         5.8603809586       -4.5599434747        0.9777167016
 C         6.4680199908       -2.9527236167        2.8557913760
 C         1.8948208347       -2.6316402477        0.2998676961
 C         1.8866873583       -1.1730561486       -0.2201295707
 C         0.9008750260       -0.1387901761        0.2872238306
 C        -0.0527095439        0.3083011261       -0.8798458300
 C        -1.5506503949        0.1309542129       -0.6434864420
 C         0.0904763978       -0.6588802737        1.5420933604
 C         1.8520774356        1.0622518816        0.6837038652
 O         2.4027206705       -0.9707890347       -1.2724720146
 O         0.4053595637        0.8851553006       -1.8776928119
 C        -2.4173357302       -0.6783351103       -1.6866247955
 C        -1.9939547174       -2.1143439118       -1.7571581509
 C        -3.0207294982       -3.2662528553       -2.1342525495
 C        -3.5380898672       -4.0088648024       -0.6935337334
 C        -3.7448889316       -5.5378535659       -0.6264852172
 O        -0.8726150676       -2.4167603435       -1.4058705831
 O        -3.7140606831       -3.2601392731        0.2148240917
 C        -4.4097402279       -2.8747791913       -2.7094617308
 C        -2.3601696758       -4.2908197580       -3.1479121175
 C        -4.5313320422       -5.9247983534        0.5747977945
 C        -5.9495472686       -5.3846271601        0.3690355985
 C        -6.8548937352       -5.2221784999        1.6570259814
 C        -6.0667395197       -4.2549289651        2.6809113063
 C        -6.3836396854       -2.6946389621        2.5402418094
 C        -8.1962630227       -4.5961081118        1.2935634539
 C        -6.9426507720       -6.6060063986        2.3988096768
 O        -6.3711005956       -5.2588362378       -0.7385206429
 O        -5.2502198546       -4.6898754404        3.4884717268
 C        -5.4482363771       -2.0041408211        3.5214296953
 C        -5.7579236990       -0.5342920907        3.8007836430
 C        -4.6831225311        0.2663825798        4.7160456647
 C        -3.8051408925        0.9867143644        3.6085991599
 C        -4.2925857363        2.1447301646        2.6076693454
 O        -6.6896770204        0.1394821348        3.3527329660
 O        -2.7442267436        0.5159696580        3.4477990670
 C        -5.4133491239        1.4239744030        5.5581236840
 C        -3.8503584578       -0.5671392405        5.7818382182
 C        -3.0247285704        2.7591249792        2.1480095005
 C        -3.0581621677        3.5913169813        0.8764276383
 C        -3.0627377456        5.1800876473        1.0552684046
 C        -1.4975113004        5.6269076553        0.8545970982
 C        -0.8816053638        5.3420860814       -0.5445991009
 C        -3.9090626296        5.8321514987       -0.0144151339
 C        -3.4309223997        5.7171840345        2.4387019068
 O        -3.1416610486        3.1565764828       -0.2685277379
 O        -0.9565049947        6.1673018848        1.7913201142
 C         0.6753244669        5.6556153051       -0.6436808126
 C         0.9185349630        5.7755245470       -2.1384402721
 C         2.4106833912        5.5812390471       -2.5952583141
 C         2.7028957660        4.1144763682       -2.9285146903
 C         2.7892810407        3.6470687616       -4.3446306392
 O         0.0595021776        5.9708715384       -2.9807830075
 O         2.6919521244        3.2583636351       -2.0004806392
 C         2.7559472927        6.5583644069       -3.8460472490
 C         3.3719393643        6.0925681567       -1.4554105697
 H         6.0157571155       -2.5522865688       -3.4791271830
 H         4.2693811852       -2.2314078760       -4.2803245871
 H         5.8221691746       -1.9448930591       -5.1528272775
 H         8.0950976591        0.2484700085       -0.3406928522
 H         6.9822704560        1.3624461459        0.0466008304
 H         7.5895680361       -1.6870188942       -2.6380643439
 H         8.5452740793       -0.1573893389       -2.2966400717
 H         8.0865910838       -0.7879935170       -3.9534728612
 H         5.6577740086        2.0289560522       -3.4715501663
 H         7.2446416915        2.2905017939       -3.0600358837
 H         7.1398386160        1.4188319768       -4.5305795726
 H         7.2480794210       -0.5683079739        1.7826569506
 H         5.5465638941       -0.3086165926        1.3942930747
 H         3.7413133258       -3.3028135933       -0.5566858597
 H         3.1541241635       -4.2990186851        0.7924303466
 H         5.3686734516       -4.5563949692        0.0734900822
 H         5.3359040537       -5.1895383195        1.7707574583
 H         6.8665219563       -4.9036716085        0.8256747173
 H         5.7135389022       -2.4598644750        3.4367286909
 H         6.7394258839       -3.9734468514        3.1691332973
 H         7.4414285436       -2.3605162934        2.9462581855
 H         1.3880820381       -2.8378994880        1.1877521795
 H         1.5168757353       -3.2681059596       -0.4829214015
 H        -1.8870343583       -0.2618783558        0.4177330230
 H        -2.0439693839        1.1274385936       -0.6303445740
 H        -0.4756673277        0.1065770645        2.1071158411
 H         0.8798136138       -0.9468023656        2.1509326146
 H        -0.6135190238       -1.4841553333        1.4452772274
 H         2.3142724596        0.6512379310        1.5446117280
 H         2.6784232289        1.1245148816        0.0113824700
 H         1.2972688787        1.9697294276        0.9953820299
 H        -3.4672191149       -0.5260531920       -1.4982305340
 H        -2.1462369466       -0.2355075009       -2.6221639468
 H        -4.2887823704       -5.7834070021       -1.5828995526
 H        -2.8475019014       -6.1221309149       -0.7015163508
 H        -4.7899472588       -2.2366037700       -1.9498639042
 H        -4.8480737169       -3.8474626260       -3.0405893350
 H        -4.3829290014       -2.1952535312       -3.4883762867
 H        -1.3247993296       -4.6258939168       -2.8103110741
 H        -3.0039351518       -5.1527960653       -3.3777795055
 H        -2.3756684551       -3.7850640845       -4.1259952698
 H        -4.2730372564       -5.3472468814        1.4460109291
 H        -4.3655374550       -7.0126066911        0.8979774486
 H        -6.1933041015       -2.4362308771        1.4496959251
 H        -7.3759131614       -2.5051417947        2.8371996639
 H        -8.8014389164       -4.4681601974        2.2086568536
 H        -8.7525544992       -5.2291450068        0.7200272865
 H        -8.0105629261       -3.5747879887        0.9590757478
 H        -5.9341988934       -6.8290111027        2.8175025133
 H        -7.7094745506       -6.5771502400        3.1597044198
 H        -7.1709592111       -7.3585992050        1.6717599958
 H        -5.5134146195       -2.4836473522        4.4637032826
 H        -4.3568792895       -2.0516558092        3.2803998438
 H        -4.8102317541        1.7684045290        1.7075343027
 H        -4.8904358978        2.8643460599        3.1886597210
 H        -6.1653758985        1.9744700126        4.9909028486
 H        -4.6733005785        2.1997599916        5.9515535412
 H        -5.9892278021        0.9109866529        6.3750025489
 H        -3.2381171433       -1.3651009160        5.3305027850
 H        -3.3138017896        0.0979464145        6.5048537481
 H        -4.5721554346       -1.1144929067        6.3328147661
 H        -2.1911138331        2.0915450346        1.8347051832
 H        -2.5365638559        3.4407794702        2.8357547781
 H        -0.9679441529        4.2861001951       -0.7397755116
 H        -1.5164585519        5.7861198075       -1.3071230028
 H        -3.9873137657        5.3432133431       -0.9947604956
 H        -3.6031840661        6.8870111494       -0.1758055443
 H        -4.9158325341        5.7700309075        0.3905252257
 H        -3.2664320654        6.7703516027        2.4779000873
 H        -4.4204167790        5.4797342315        2.7811220083
 H        -2.7183048553        5.1909916492        3.1202124211
 H         0.7514533188        6.6216035544       -0.2063241414
 H         1.4234141983        4.9540055411       -0.1848246852
 H         1.9813752410        4.1822651270       -4.9339120142
 H         3.7046518131        3.9048977751       -4.8287219163
 H         2.7444942236        2.5815494714       -4.4556201211
 H         2.0815102752        6.6509528989       -4.6578638238
 H         3.7535178828        6.4128675521       -4.2614890431
 H         2.7795889341        7.5296489678       -3.3201474195
 H         3.0054114932        6.9820829500       -1.0217737081
 H         3.5041154701        5.3212662908       -0.7444851801
 H         4.3994660946        6.1573082343       -1.9339809345
 Na        2.7137166950        0.7616769386       -2.7619394888
