155

 C         5.1787303029       -0.9704210378       -4.4544069200
 C         4.8101835773       -0.2502725187       -3.1809078302
 C         5.7676126666        0.7932891848       -2.5458291680
 C         5.5933333858        0.8365553918       -0.9129595240
 C         6.8351534562        0.3123014440       -0.0456664308
 C         7.2576931505        0.6073512959       -2.9295922500
 C         5.1982508197        2.1043451052       -3.1796894171
 O         3.6343655627       -0.2547215869       -2.7866447301
 O         4.6096705821        1.2092929418       -0.4437057151
 C         6.4655959908       -0.0431111519        1.4894755748
 C         6.6462930138       -1.6189215942        1.6474036699
 C         6.0092549270       -2.2738165359        2.8160187439
 C         4.3418072702       -2.0545256909        2.7587611191
 C         3.4486928794       -2.7735775131        1.7899324708
 O         7.3474928216       -2.2986112103        0.8756984080
 O         3.7298844451       -1.4284884838        3.6413912967
 C         6.2183564096       -3.8118480126        2.6476509293
 C         6.3275717646       -1.6123566804        4.1346231793
 C         2.0256482221       -2.3841570695        1.7418630983
 C         1.6989856501       -1.1288401718        0.9176479996
 C         0.4798135527       -0.2511368800        1.3903006351
 C        -0.3094045048       -0.0965095582       -0.0125092577
 C        -1.6159096592       -0.8072417579       -0.1894512983
 C        -0.3448805557       -0.9176356316        2.5165226930
 C         0.9893218596        1.2410291271        1.8950555390
 O         2.5273567454       -0.7750200513        0.0777872243
 O         0.1147277796        0.5293037499       -0.9451912421
 C        -1.8440594285       -1.3995793010       -1.5621685850
 C        -0.8121047983       -2.5010421498       -1.7361887477
 C        -1.0571716939       -3.7633979723       -2.6152507421
 C        -1.8356315849       -4.8020220635       -1.6150228612
 C        -2.5154710222       -6.2069410534       -2.0773992476
 O         0.2564002444       -2.3511213888       -1.2228012453
 O        -1.5115911450       -4.6932459382       -0.4372912349
 C        -1.8224275506       -3.3853363614       -3.8615156142
 C         0.3435691161       -4.3912583930       -2.8517317193
 C        -3.6992162717       -6.5900961612       -1.1422702715
 C        -4.7350325243       -5.3096259619       -1.1199676847
 C        -6.1232289946       -5.5508586095       -0.5072461172
 C        -6.0185783823       -4.9923567389        1.0342909054
 C        -5.2466695614       -3.6347335760        1.1598822427
 C        -7.1186165606       -4.5850484674       -1.0968771426
 C        -6.5933419080       -7.0871021963       -0.4170183984
 O        -4.3558511412       -4.2811706002       -1.6922794249
 O        -6.4607532575       -5.6252779938        1.9309239829
 C        -5.7197210317       -2.6231743607        2.1786922336
 C        -4.9522412149       -1.2791631377        2.1469477935
 C        -5.1491762030       -0.3207515207        3.3322587333
 C        -4.1041011956        0.9095230328        3.1986339577
 C        -4.1508148684        1.9699119227        2.0988546501
 O        -4.4680413478       -0.8288318528        1.0860541246
 O        -3.2405599939        0.8842115576        3.9844002392
 C        -6.6145607917        0.3140319940        3.4847044427
 C        -4.7854932589       -0.9779771556        4.6926150084
 C        -3.6777258135        3.2805503162        2.6926359496
 C        -3.5294847172        4.3464519527        1.5824838464
 C        -3.1163100789        5.8390732513        1.9234895049
 C        -1.8459461818        6.3143612440        0.9347918634
 C        -1.8997939928        6.2498235983       -0.5347013954
 C        -4.3204653380        6.7960824291        1.5708546345
 C        -2.5395404472        5.9683357150        3.3816775219
 O        -3.6787552016        4.0488248716        0.4397247586
 O        -0.8739861875        6.5459138745        1.5690253232
 C        -0.4057653324        6.1187832401       -1.0544819478
 C        -0.2858188084        5.5847162951       -2.4979967809
 C         1.1196361552        5.3366045863       -3.1093372640
 C         1.4143454905        3.8258058760       -2.8762433984
 C         0.8291568608        2.8384046850       -3.7740729397
 O        -1.2501360990        5.3004538958       -3.1915827184
 O         2.1471986277        3.4359474111       -1.9940705366
 C         1.1019428990        5.8684736989       -4.6162923733
 C         2.2433626747        6.1025982198       -2.3236318731
 H         5.7826951971       -1.9067845082       -4.1873319317
 H         4.2467138051       -1.3750253974       -4.7314525695
 H         5.5807726350       -0.3160102661       -5.2076617618
 H         7.1871439019       -0.6693529834       -0.4488475546
 H         7.5385970281        1.1274083731       -0.0355802301
 H         7.7390973900       -0.2771330997       -2.5365800851
 H         7.8298913275        1.4116047948       -2.4350141407
 H         7.2201514123        0.7025970191       -4.0100196943
 H         4.3600352792        2.6141151734       -2.6423579653
 H         6.0033782704        2.8107135347       -3.1198939504
 H         5.0505369264        1.9832630869       -4.2856461445
 H         7.2961730701        0.4077952539        2.0371126377
 H         5.4052141340        0.0949492412        1.7166781016
 H         3.7439534439       -2.8757937016        0.7394114760
 H         3.5112069665       -3.8766063118        2.0709879776
 H         6.1617717614       -4.1775013005        1.5913940558
 H         5.4854819139       -4.2331978205        3.4252403638
 H         7.1965562530       -3.9838966699        3.0895583058
 H         5.7116417248       -2.1241314249        4.9354255003
 H         7.3842076354       -1.7675000882        4.4768853508
 H         6.0998726025       -0.5122885283        4.1943176262
 H         1.7419788519       -1.9330344479        2.6890591327
 H         1.3300530816       -3.2038731826        1.5919337211
 H        -1.8213040074       -1.5940930109        0.4290533135
 H        -2.3652367713       -0.0394092141        0.0029873759
 H        -1.2629227338       -0.2988774356        2.5991261979
 H         0.1683324543       -0.7814121243        3.4896687725
 H        -0.6251723300       -1.9719003351        2.3196455933
 H         1.7114706605        1.3081033899        2.7236656371
 H         1.3846130056        1.7608708874        1.0178320440
 H         0.2682229146        1.8193635605        2.4549126719
 H        -2.8186625238       -1.8542178337       -1.7078832801
 H        -1.6916549800       -0.5918287682       -2.3920910631
 H        -2.7609561982       -6.0684625684       -3.1521425211
 H        -1.6923063822       -6.9002284118       -1.9345990621
 H        -2.8132195910       -2.9085415223       -3.6746588905
 H        -2.0019392746       -4.2508030427       -4.5398431980
 H        -1.2238997968       -2.6179571193       -4.4945671937
 H         0.8765902776       -4.6926309989       -1.9037062693
 H         0.2450314783       -5.1999806203       -3.5705677425
 H         0.9472830750       -3.5994812344       -3.2607443790
 H        -3.3280228889       -6.9305054799       -0.2238105897
 H        -4.1598401631       -7.4978830001       -1.5827341175
 H        -4.2894263523       -4.0257672905        1.5666166981
 H        -5.0871554697       -3.1047511605        0.1971358524
 H        -8.1206327655       -4.6351124457       -0.6145354263
 H        -7.3499662921       -4.9112010575       -2.1623600158
 H        -6.5893457106       -3.7101658192       -1.3365212629
 H        -5.9305713040       -7.7762737397        0.1391871709
 H        -7.5629441100       -6.9560497953        0.1194484494
 H        -6.8867673728       -7.3537953896       -1.3806791345
 H        -6.7959277996       -2.4080543564        2.1778007223
 H        -5.7360981966       -3.0136572689        3.1709506741
 H        -3.3932776265        1.6814746797        1.3794687925
 H        -5.0388977890        2.0122870732        1.4491856630
 H        -7.0342046535        0.9042288743        2.7018867880
 H        -6.5936683727        0.9593797774        4.4102733620
 H        -7.3485363971       -0.4776532590        3.6656003195
 H        -3.7658319991       -1.4217814004        4.7690634596
 H        -4.8244928373       -0.1587101744        5.4294760424
 H        -5.4811372373       -1.6553462088        5.0821638863
 H        -2.7344726154        3.3057477610        3.2337963002
 H        -4.3931539164        3.4402712603        3.5554332544
 H        -2.4712306345        5.4509309130       -0.8845854914
 H        -2.4895465545        7.1978578308       -0.8551697274
 H        -4.5684889857        6.4110007417        0.5654907672
 H        -3.8177459165        7.8329416551        1.4712069380
 H        -5.2696532561        6.6575772862        2.1357942815
 H        -2.3927795271        7.0554406333        3.5742441166
 H        -3.2370853464        5.5795892475        4.1221978266
 H        -1.5797580123        5.5485900818        3.4842348812
 H         0.1538095353        7.0513304540       -0.8536609128
 H         0.1793553364        5.3713852527       -0.5092320970
 H        -0.2020099300        3.1227590472       -4.0302611318
 H         1.3730105709        2.8415442111       -4.7585085239
 H         0.8679251206        1.9023380858       -3.2752907967
 H         1.0009184586        6.9231658182       -4.5846596172
 H         0.2531805306        5.4162301084       -5.0944822298
 H         2.0745169307        5.6460916377       -5.1189086901
 H         2.0585010614        7.1705459063       -2.3110380863
 H         2.4672868057        5.7438769990       -1.3212188460
 H         3.2669780515        5.8967812242       -2.7904583657
 Na        2.4975666998        1.1695817805       -1.3217786255
