155

 C         5.2380135634       -1.3927630197       -3.8274773635
 C         4.6189085459       -0.2232677250       -3.1807827680
 C         5.6951314885        0.8206052825       -2.5787085496
 C         5.5217832080        0.9043004266       -1.0956005330
 C         6.3431641854        0.0064118976       -0.1453076354
 C         7.2139648479        0.4184449502       -2.7900202000
 C         5.4486358229        2.1260969803       -3.3148741544
 O         3.4709723537       -0.0098303700       -3.1137260059
 O         4.6656910938        1.5963626469       -0.5422908833
 C         5.6581427031       -0.2939451616        1.2157687985
 C         6.4036120515       -1.6888231756        1.6333225519
 C         5.9036729206       -2.2873134679        3.0476978455
 C         4.3492857825       -2.1577907638        3.0331345491
 C         3.4453540548       -2.8204795076        2.0422034713
 O         7.2951329102       -2.2863340793        1.0415086045
 O         3.8397154428       -1.2087586120        3.5956453185
 C         6.3288931676       -3.7740213875        3.2132595650
 C         6.6413230409       -1.4007922717        4.1068253230
 C         2.0881187644       -2.2305004884        1.9247895243
 C         1.9871424006       -0.8911095995        1.0495579119
 C         0.6285613840       -0.1278292368        1.1875280552
 C        -0.0942057653       -0.1796843440       -0.1719184396
 C        -1.5509973768       -0.5877423752       -0.3072792128
 C        -0.3006323750       -0.7777101104        2.3114640059
 C         0.9695432610        1.3590581298        1.5944794806
 O         2.7323488754       -0.5334807906        0.2207204254
 O         0.4696673360        0.3900708275       -1.1137882981
 C        -1.6770111956       -1.6142996410       -1.4524732217
 C        -0.4814220795       -2.6174591789       -1.4360897128
 C        -0.6572194021       -3.9767258042       -2.2693570362
 C        -1.5206718631       -4.8955436438       -1.3932630148
 C        -2.1458598516       -6.2347766896       -1.8813321853
 O         0.4858090232       -2.4105066134       -0.7553747883
 O        -1.7378791503       -4.5890663646       -0.2358080480
 C        -1.1429213918       -3.6710451994       -3.7179109487
 C         0.7800403652       -4.6336085002       -2.5302577085
 C        -3.5798488109       -6.4202455318       -1.4301059905
 C        -4.4709923479       -5.1521444675       -1.7002863424
 C        -5.9176867560       -5.1608346693       -1.0872249329
 C        -5.7293333216       -4.6842791396        0.5378824382
 C        -4.9925380304       -3.3653206823        0.7644719487
 C        -7.0099535523       -4.2925898025       -1.6938629796
 C        -6.5944128511       -6.5163956087       -1.0316847579
 O        -3.9829823412       -4.0883949908       -2.0961889473
 O        -6.2203367006       -5.3496915496        1.3527757255
 C        -5.3968331428       -2.6532469042        2.0456760561
 C        -4.8555302684       -1.2146850930        2.0414404215
 C        -5.0335103077       -0.3454519284        3.2732012119
 C        -4.0410441914        0.8132261758        3.0887773606
 C        -4.2763909985        1.9671088356        2.1224262754
 O        -4.1888778920       -0.8131062962        1.0918613080
 O        -2.9383737978        0.6776188556        3.5484282822
 C        -6.5111159790        0.2594077073        3.2127973523
 C        -4.7654317797       -1.0690771242        4.6102267496
 C        -3.6572093706        3.2623573609        2.7278845993
 C        -3.9120094637        4.3585657268        1.6463073238
 C        -3.3553700858        5.8640146642        1.9803416642
 C        -2.1852156781        6.2411879573        1.1253050737
 C        -2.1895940232        5.9542683023       -0.4121681076
 C        -4.6839700923        6.8425706029        1.8789381174
 C        -3.0016604515        5.8349223817        3.5458551930
 O        -4.5221263584        4.1545351940        0.6402470747
 O        -1.1727890566        6.7102965785        1.5501029528
 C        -0.8223137690        6.2274736338       -0.9698403349
 C        -0.5630075927        5.4307440553       -2.2131105634
 C         0.9050910416        5.1685242639       -2.8008880087
 C         1.0995124147        3.6334180351       -2.8147134055
 C         0.5747030158        2.6228526404       -3.8431322987
 O        -1.4209580288        4.7029815230       -2.6889300932
 O         1.6872878001        3.2768737133       -1.7928389626
 C         0.8011886500        5.6391179803       -4.3331921723
 C         2.0806146275        5.8306268089       -2.0862605114
 H         5.6551129499       -2.1048548251       -3.1027297852
 H         4.4193829847       -1.8791550048       -4.3168695426
 H         6.0512704128       -1.0799024370       -4.5516742119
 H         6.5146538734       -0.8721729293       -0.7606407077
 H         7.2745048021        0.5333104861        0.1867200636
 H         7.4756296600       -0.6393038604       -2.7774797545
 H         7.7582916864        0.9996879512       -2.0808035045
 H         7.5831881766        0.7936898327       -3.7872052905
 H         4.3594795290        2.3253110301       -3.2029319648
 H         6.2099764389        2.9106791349       -2.9587372536
 H         5.5107007236        2.0735616612       -4.3836944671
 H         5.8315887271        0.3931329458        1.9518456355
 H         4.6095695147       -0.3571097209        1.0859181524
 H         3.9249342249       -2.8495416196        1.0318058970
 H         3.4311708551       -3.8347593165        2.3249736651
 H         5.4332893740       -4.3297178303        3.2623013508
 H         6.8252366392       -3.9239314196        4.2325662422
 H         7.0661028591       -4.0165633217        2.3602719505
 H         6.7203156723       -1.9890144025        5.0382692362
 H         7.6319699709       -0.9040539636        3.8144949498
 H         6.0450456910       -0.4565959042        4.4067737722
 H         1.4918438236       -2.2655367884        2.8299526146
 H         1.5005644267       -2.8133945513        1.2170520969
 H        -2.0235164997       -1.1923437006        0.5127846353
 H        -2.3524905714        0.1846076470       -0.4766115666
 H        -1.2895870136       -0.3480725648        2.4241545421
 H         0.3830037904       -0.9224370422        3.2221384872
 H        -0.4164608900       -1.8120915559        2.0963620851
 H         1.4279571655        1.2784161999        2.6212433910
 H         1.7390387481        1.8860100087        1.0634041611
 H         0.1593469058        1.9465427127        1.4844927805
 H        -2.7218659093       -2.1055425706       -1.3982445306
 H        -1.7609770977       -1.1239029760       -2.4273379664
 H        -1.9571819122       -6.2759539640       -2.9658784444
 H        -1.4954197851       -6.9414031196       -1.4294108416
 H        -2.2116249896       -3.3759821117       -3.7491217659
 H        -0.7956582503       -4.3986452510       -4.4489694673
 H        -0.6051823535       -2.8233259623       -4.1672325135
 H         1.2877041777       -4.6497509212       -1.5841777540
 H         0.6474861085       -5.5708768000       -2.8595268092
 H         1.2667882015       -3.9869768776       -3.2730512026
 H        -3.6720644817       -6.4178043781       -0.3121956054
 H        -3.9499611360       -7.4029534583       -1.7141395635
 H        -3.8935205612       -3.4997061504        0.7438156675
 H        -5.2851670825       -2.7537059312       -0.0383269467
 H        -8.0383383555       -4.6364216831       -1.3783279891
 H        -6.8780008679       -4.4059628595       -2.7035359203
 H        -6.9584688264       -3.2114497992       -1.3138341995
 H        -6.0307148034       -7.0793417015       -0.3289430093
 H        -7.6041767054       -6.4164063097       -0.7268636360
 H        -6.4185231853       -7.0201546427       -2.0268861958
 H        -6.4892499360       -2.6318133111        2.1594932828
 H        -5.1528022317       -3.3233737564        2.9719704919
 H        -3.8159414670        1.6730144603        1.1294957925
 H        -5.3153596970        2.1268256727        1.9646537302
 H        -6.8137852889        0.4347194311        2.2175715886
 H        -6.5114052973        1.1873002904        3.9117157757
 H        -7.2404603417       -0.2968097373        3.6428195148
 H        -3.8989432631       -1.7332172515        4.5361917634
 H        -4.6877543295       -0.4256529741        5.4702676305
 H        -5.7007558437       -1.7219625473        4.7524624100
 H        -2.6331866879        3.0461356150        3.0979623086
 H        -4.2100998682        3.5196537384        3.6083257484
 H        -2.5709357387        4.9044172081       -0.6819568920
 H        -2.9215504821        6.6118618213       -0.8303806201
 H        -5.1346291248        6.7048933689        0.8772084975
 H        -4.2682370319        7.8925255165        1.8463147968
 H        -5.1582309014        6.6514933394        2.8818343907
 H        -3.0364137645        6.8602417540        3.8693242977
 H        -3.7094003818        5.3375158634        4.1746579263
 H        -2.0764476626        5.3833933188        3.6821170960
 H        -0.7979943290        7.2630063638       -1.3483451397
 H        -0.1001403460        6.2227168567       -0.1748304923
 H        -0.4036030636        2.9313004192       -4.1243653542
 H         1.2938105643        2.5138045806       -4.6752185928
 H         0.5768567042        1.6229815770       -3.3480752656
 H         1.6409694591        5.3394654440       -4.8992642877
 H         0.8304009501        6.6861308351       -4.2965927682
 H        -0.1234581393        5.3507355875       -4.8833415593
 H         2.0131956805        6.9443169547       -2.0959446706
 H         2.1512514208        5.4440066021       -1.0486792672
 H         3.1305384493        5.5927597468       -2.5821357581
 Na        2.5421130476        1.2622242496       -1.2795847857
