155

 C         5.5067412739       -1.6129003687       -3.5376843178
 C         5.0279782081       -0.2592477480       -3.1605451060
 C         5.9991381242        0.8899526876       -2.7506832243
 C         5.8920281608        0.7400430180       -1.2034729657
 C         6.8788144112       -0.0475099130       -0.4107021434
 C         7.2509466596        0.8000403169       -3.5138698942
 C         5.4800274907        2.3419200198       -2.9893050710
 O         3.8234819693       -0.0762235935       -3.0777494617
 O         5.0023260454        1.2495006665       -0.6152969479
 C         6.7147270681       -0.1322451201        1.1040247422
 C         6.3879295051       -1.6452085644        1.5670322323
 C         5.8238658084       -1.9542287298        2.9869799907
 C         4.1990969812       -1.7707501321        3.1093927281
 C         3.3857142709       -2.7915486722        2.2202088576
 O         6.6286203789       -2.6017198883        0.8766909766
 O         3.7537616452       -0.8902234435        3.7566605171
 C         6.2636734916       -3.4011778653        3.4514690309
 C         6.4211093132       -0.9776318367        4.0230316615
 C         1.8859534467       -2.2243572924        2.0951603974
 C         1.8661362360       -0.9560854480        1.2007326041
 C         0.5855861516       -0.0257933644        1.2765571897
 C        -0.0676359938       -0.1095695728       -0.2240037181
 C        -1.4218420391       -0.7655761670       -0.4471275577
 C        -0.4157457262       -0.5145131989        2.4144280104
 C         1.0109587672        1.4545521695        1.6100267009
 O         2.8184281204       -0.6254504856        0.4768699807
 O         0.4120731990        0.4779191037       -1.1704764047
 C        -1.4938935563       -2.0569677759       -1.3404998892
 C        -0.3746549902       -2.9913427870       -1.2049028745
 C        -0.3930930248       -4.3576216216       -1.9685410917
 C        -1.5933954119       -5.1547041795       -1.2312163562
 C        -2.1778946439       -6.4197680721       -1.8956118874
 O         0.6100272640       -2.6533487978       -0.5822626938
 O        -2.1118569809       -4.6370066240       -0.2924409865
 C        -0.6635461499       -4.0944145804       -3.4763669611
 C         0.9906582443       -5.0666384015       -1.6845510426
 C        -3.6659434349       -6.5716246969       -1.7494787653
 C        -4.3853651044       -5.3074485401       -2.0932895398
 C        -5.8343904986       -5.2164215293       -1.6109107473
 C        -5.6333913509       -4.5827665316       -0.1202680797
 C        -5.1015874159       -3.1125030368        0.0142294811
 C        -6.4809458271       -4.0449565777       -2.4780980165
 C        -6.5987574565       -6.5135611369       -1.7115099598
 O        -3.8520589679       -4.4014543649       -2.6747888167
 O        -5.9621175244       -5.1498667118        0.8819724753
 C        -4.9121332335       -2.7173984560        1.5638514101
 C        -4.5066159091       -1.2562895725        1.7459273081
 C        -4.8548550055       -0.4272321619        3.1582517911
 C        -4.1249341988        0.9197156702        3.2542890017
 C        -4.7129409949        2.1916381517        2.7142810841
 O        -4.1582000714       -0.6318528887        0.7986024531
 O        -3.0796794530        0.9877639334        3.9699484672
 C        -6.4231696824       -0.0958205289        3.2639182621
 C        -4.5880414653       -1.3301733473        4.4060756358
 C        -3.8678490346        3.5107450504        2.7938221669
 C        -4.3620508648        4.6452898604        1.9026170867
 C        -3.7608707434        6.0747703988        2.1244217000
 C        -2.3447132293        6.1597873157        1.3948174290
 C        -2.4357289998        5.8872155439       -0.1216233030
 C        -4.7950157861        7.0660484646        1.4446056417
 C        -3.5241420404        6.4674232602        3.5787563221
 O        -5.1443674882        4.4246431332        0.9855268178
 O        -1.3609523572        6.3491272577        2.0904249291
 C        -1.0936414624        6.0093305265       -0.7478603579
 C        -0.8724374685        5.0529412831       -1.9337264401
 C         0.5444980262        5.0553490512       -2.6991991932
 C         1.2006306395        3.6206824849       -2.6225347285
 C         0.4832793195        2.4036890980       -3.3690285193
 O        -1.7747636856        4.4324518057       -2.4673598087
 O         2.1485793967        3.4829648498       -1.8715972523
 C         0.1682982930        5.4662765305       -4.1766985818
 C         1.5905455869        6.2125388454       -2.1647841797
 H         6.4544026533       -1.8059997902       -3.1138545755
 H         4.7222412254       -2.3883231530       -3.2481191129
 H         5.6773715773       -1.7374814557       -4.6038890829
 H         6.9702276330       -1.1010487452       -0.7009403524
 H         7.8726474581        0.2105302081       -0.6226167244
 H         7.7003176902       -0.1944626985       -3.3223619728
 H         8.0737606988        1.5233832220       -3.3488138892
 H         7.0541245824        0.8256750494       -4.5461747001
 H         4.4459544214        2.3731122435       -2.6514678626
 H         5.9619646214        3.0820627432       -2.3091075251
 H         5.5265789825        2.5853228930       -4.0887631898
 H         7.6389086183        0.1879977411        1.6944494982
 H         5.9659414915        0.5289979717        1.6632080070
 H         3.9759229334       -2.8654458350        1.3470051606
 H         3.2414211271       -3.7863669014        2.6958435896
 H         6.0692758993       -3.5096258300        4.5252957834
 H         7.2842499263       -3.6273455890        3.2287184309
 H         5.5161769995       -4.0641738485        2.9432620983
 H         5.5952014425       -0.7694436912        4.7552677549
 H         7.3086739502       -1.3905136145        4.6160175904
 H         6.6909059391        0.0662811728        3.6620520652
 H         1.3652398052       -1.9971898626        3.0737557760
 H         1.3844895501       -3.0629473148        1.5658413019
 H        -1.9112526419       -1.1593646990        0.5049877870
 H        -2.0389873048       -0.1146152286       -0.9157000270
 H        -1.3153887962        0.0446906632        2.6419443876
 H         0.0586563906       -0.3232053316        3.3549659644
 H        -0.7140082137       -1.5403817360        2.1259967120
 H         1.3137755577        1.5272931754        2.6487796583
 H         1.8928668071        1.7074547504        1.0501427012
 H         0.2985857271        2.2861975778        1.4340989053
 H        -2.4081378902       -2.5128431786       -1.0923688298
 H        -1.5927796979       -1.7267418168       -2.3636975199
 H        -1.7060294677       -6.5090352785       -2.8500764301
 H        -1.6033489720       -7.1756505222       -1.2784703207
 H        -1.7365896962       -4.0882037915       -3.7050219253
 H        -0.4576979400       -4.9551689074       -4.1346605486
 H        -0.2961795759       -3.1215829881       -3.6828070878
 H         1.1560589137       -4.8887664715       -0.6790348228
 H         0.9111113610       -6.1242372298       -1.9035518514
 H         1.7461303600       -4.5910557883       -2.2960237354
 H        -4.0881587625       -6.9062599289       -0.7763318621
 H        -3.9753983704       -7.3274376548       -2.5165067373
 H        -4.2356102475       -2.7784232481       -0.5038638186
 H        -5.8582951713       -2.4485853942       -0.5240529277
 H        -7.3986238677       -3.8024853968       -2.0129814638
 H        -6.5254909126       -4.4400585693       -3.4606626943
 H        -5.8298786877       -3.1432680653       -2.4494532199
 H        -6.2578288288       -7.0964934116       -0.8420307241
 H        -7.6619657834       -6.3543044783       -1.7249164882
 H        -6.3593397041       -7.0293354337       -2.6530371180
 H        -5.8153493380       -2.9586895133        2.1713789031
 H        -4.0034736638       -3.2070830859        1.8092880312
 H        -5.0405864658        2.0898360659        1.6811871359
 H        -5.6592788124        2.4284324181        3.3020638925
 H        -6.7699649985        0.5683554878        2.4738468393
 H        -6.6312748815        0.5611903161        4.1206076641
 H        -6.9027546251       -1.0615815426        3.2150738669
 H        -3.6053904093       -1.7736131286        4.3067603685
 H        -4.5582526785       -0.7401602123        5.3462657770
 H        -5.3139796514       -2.1507350425        4.3547213930
 H        -2.9221039305        3.3631152838        2.3357737273
 H        -3.8306729768        3.9711366185        3.7559243574
 H        -2.8596057270        4.9646937705       -0.4681805399
 H        -3.1041002961        6.6589271858       -0.5315191391
 H        -5.2711257013        6.4942392207        0.5833638498
 H        -4.2597822285        7.9664379243        1.2539622063
 H        -5.5835420673        7.2708925905        2.2120220646
 H        -3.3177415507        7.4726205468        3.6151373968
 H        -4.3585001686        6.1830613426        4.1490983735
 H        -2.5930350243        6.0950742488        4.0400662571
 H        -0.9944903035        7.0075233714       -1.1414101950
 H        -0.3492038376        5.8525224485        0.0823908045
 H        -0.5826033899        2.4047878523       -3.0596395501
 H         0.6151263827        2.4490656667       -4.3976425327
 H         1.0189498655        1.4687427100       -3.0961475755
 H        -0.7948333032        6.0148457226       -4.1966331848
 H         0.0188389245        4.6411239486       -4.8348523895
 H         0.8611305280        6.0894443166       -4.6257345925
 H         1.1465157318        7.2248995542       -2.3266418966
 H         1.5750054981        6.2879271567       -1.0508596534
 H         2.4931279391        6.1501732449       -2.6947734685
 Na        2.8012694235        1.3232167745       -1.1302953324
