155

 C         5.8951620249       -1.2422310059       -2.6533379638
 C         5.3726361045        0.1429701211       -2.9181461403
 C         6.2881121722        1.3551800686       -2.5360740632
 C         5.9754344072        1.4585667568       -0.9183763755
 C         7.1732940232        2.0032596435       -0.0265458961
 C         7.7688607008        1.1898286431       -2.9596390313
 C         5.6618958849        2.7423365038       -3.0764486592
 O         4.2477236743        0.3299832128       -3.4109633729
 O         4.8467127424        1.3147243961       -0.5821913067
 C         7.0016234851        1.7004992890        1.5133142662
 C         7.1150024889        0.2316568252        1.7322139712
 C         6.5635268911       -0.3881442316        3.1684014450
 C         5.1382545850       -0.5859602860        2.6525809641
 C         4.5995787110       -2.0219079190        2.1906429480
 O         7.5062541261       -0.5565341555        0.8926959658
 O         4.2356383019        0.2101290936        2.8158775491
 C         7.4381775610       -1.5761187397        3.6995321870
 C         6.5375343178        0.6334576322        4.3201013947
 C         3.0746057381       -2.0415994660        2.1297501703
 C         2.5410171264       -0.9752505569        1.1200921316
 C         1.2414412231       -0.0123704878        1.3338964489
 C         0.2632299206       -0.1595448154        0.0517228882
 C        -1.0936853175       -0.8197949717        0.0037126939
 C         0.3731010465       -0.2054612308        2.6110240077
 C         1.7655634011        1.4639257326        1.4565756733
 O         3.2753119185       -0.8098646626        0.1700863190
 O         0.7415220550        0.4074194594       -0.9835656224
 C        -1.3442967184       -2.2590003865       -0.3389965806
 C        -0.5242596161       -3.2281387520        0.4953301376
 C        -0.5787353877       -4.7752158553        0.1465604580
 C        -2.1381248692       -5.0997776546       -0.3498652360
 C        -2.3770741013       -6.2827590051       -1.3549504558
 O         0.3477190651       -2.8627412299        1.2646108755
 O        -3.0342237483       -4.4681508804        0.2162753908
 C         0.3637249199       -5.0962283918       -0.9824632466
 C        -0.1835199498       -5.5436810557        1.4314626962
 C        -3.7696106710       -5.9836368622       -2.1756336018
 C        -3.5570434170       -4.8153436188       -3.0412574120
 C        -4.8067572956       -4.0297745160       -3.7231825175
 C        -5.7482872415       -3.5524056641       -2.5761869631
 C        -5.2067895914       -2.2888360467       -1.7684658490
 C        -4.4311154831       -2.9474836529       -4.6504800133
 C        -5.6344893699       -5.1092511836       -4.5339430564
 O        -2.4158953163       -4.3959975887       -3.2044139580
 O        -6.8310584654       -4.0149707984       -2.3655106288
 C        -6.1039069699       -2.1093665557       -0.5916336110
 C        -5.3216496168       -1.4749028104        0.5437416315
 C        -5.8527487188       -1.6512673379        2.0042416646
 C        -5.3507898978       -0.3206511457        2.8193352793
 C        -5.6411353861        0.9537067826        2.1024095154
 O        -4.2081376599       -0.9898671177        0.2724519945
 O        -4.7102071004       -0.3338805749        3.8557594037
 C        -7.4484273791       -1.7567514862        2.1192658894
 C        -5.2403575644       -3.0600619057        2.5207780596
 C        -5.2291328876        2.2019125145        2.8626833360
 C        -5.1222403289        3.4592573897        1.9027435195
 C        -4.7134282645        4.8725206575        2.3967118858
 C        -3.2307633526        5.0276152686        1.8610908014
 C        -2.9711861897        4.8640243093        0.3175550260
 C        -5.6800033644        5.9228771155        1.8238286933
 C        -4.6417468416        5.0082984624        3.9563107482
 O        -5.3541318209        3.2490093688        0.7095732430
 O        -2.2635622588        4.9698612258        2.6197253850
 C        -1.5519574732        5.2329700084       -0.0150602355
 C        -0.9531717800        4.2537999072       -0.9806646182
 C         0.3097510980        4.7437803851       -1.8444564140
 C         1.0676811512        3.4163748919       -2.1916177677
 C         0.4148276610        2.5026665611       -3.2356973950
 O        -1.2913146174        3.0927276866       -1.0925114340
 O         2.0983082844        3.1449122665       -1.6383820884
 C        -0.0678146390        5.5087606736       -3.1233652123
 C         1.2013054865        5.6227602151       -0.9225191398
 H         6.5263416877       -1.6520673184       -3.3909631524
 H         6.4842659305       -1.4486610093       -1.7722967208
 H         4.9865598428       -1.9205504300       -2.5895472460
 H         8.1868679445        1.7870448793       -0.3750972953
 H         7.0383457534        3.1062244478       -0.0899031821
 H         8.3778556695        0.7052713470       -2.1904960403
 H         8.3853677906        2.1023091421       -3.0318855033
 H         7.8249450742        0.7266591635       -3.9077774340
 H         4.5506024801        2.5988981326       -3.0892077734
 H         6.1823323954        3.6658638495       -2.6418901235
 H         5.8755180220        2.8607287112       -4.1351593711
 H         7.7632383054        2.2504541660        2.1382912117
 H         5.9083425461        2.0454505000        1.8507146503
 H         4.8965310044       -2.3475931949        1.1533439154
 H         4.8550816002       -2.7078857361        2.9754824666
 H         7.0076526192       -2.0049260533        4.5430238038
 H         8.3928628443       -1.1157772381        3.7841105388
 H         7.5939509589       -2.2896178475        2.8776735181
 H         6.0820510780        1.4929482377        3.8999301765
 H         6.0024560966        0.4150335852        5.1986073947
 H         7.5723719238        0.8558516555        4.5540188477
 H         2.6967272421       -1.9416116529        3.1568148451
 H         2.7605149072       -2.9716896003        1.6723558122
 H        -1.5399582023       -0.6686721692        1.0432857097
 H        -1.7578801371       -0.1801898800       -0.5277081555
 H        -0.2265414279        0.6740470829        2.7162897525
 H         1.0314104265       -0.4351159285        3.5298896322
 H        -0.2373259054       -1.0434376123        2.5066163528
 H         2.8556880043        1.3450945765        1.7481970152
 H         1.5915921151        1.9520372939        0.4746729640
 H         1.2557151121        2.0137834148        2.2193889670
 H        -2.4256511895       -2.4676399027       -0.1623999537
 H        -1.2143571985       -2.6020049166       -1.4232115844
 H        -1.5885406862       -6.3794892718       -2.0995386347
 H        -2.3826301495       -7.2208814752       -0.8215616285
 H        -0.1083792743       -4.8269113266       -1.9413933569
 H         0.6553248065       -6.1536035343       -0.9537250457
 H         1.3123819623       -4.6021194561       -0.9038668850
 H        -1.0331188248       -5.5846409781        2.0846017151
 H         0.1961624233       -6.4915304146        1.3178197537
 H         0.5253529988       -5.0466085152        2.0408495279
 H        -4.6256592584       -5.9873529246       -1.5116979917
 H        -3.8541831082       -6.8547916414       -2.8181845192
 H        -4.2787108038       -2.5608952628       -1.2566890153
 H        -5.0708285233       -1.3334837738       -2.3357750612
 H        -5.2720316413       -2.1474944886       -4.6358656104
 H        -4.2279338578       -3.4983450066       -5.5886035331
 H        -3.6368094651       -2.3226091108       -4.2945978586
 H        -6.2214749007       -5.8219033105       -3.9399238741
 H        -6.3780013904       -4.5301750353       -5.1075941740
 H        -5.0308024354       -5.4791265842       -5.3511834411
 H        -6.9589901099       -1.5605870533       -1.0240689651
 H        -6.6238877773       -2.9295577461       -0.3033995904
 H        -5.3855275219        0.8594887394        1.0782640113
 H        -6.7643234429        1.0220707609        2.1146132969
 H        -7.9206499655       -0.7480984106        1.9326183483
 H        -7.7162034693       -2.1094530580        3.1322647579
 H        -7.8824818375       -2.4031545755        1.3586627810
 H        -4.1906744416       -2.9858986523        2.6976536598
 H        -5.8419129091       -3.4242320628        3.4080526372
 H        -5.3047991164       -3.9196270106        1.8616415844
 H        -4.2793843192        1.9471352984        3.4551636994
 H        -5.8656070315        2.2808586017        3.7401589672
 H        -3.2009107334        3.8264446922        0.1229268159
 H        -3.6935322665        5.4940476870       -0.2572156202
 H        -6.6359096406        5.5173364986        1.5152641009
 H        -5.2345860969        6.6579857769        1.0787192403
 H        -6.0052581722        6.6741685231        2.5582448777
 H        -4.1499594185        5.9310656002        4.1855179530
 H        -5.6617988576        5.0647243965        4.3934690782
 H        -4.1170512995        4.2296866493        4.3952755290
 H        -1.3884093329        6.3846068739       -0.0650373587
 H        -0.9322630390        5.0858827126        0.8985294262
 H        -0.6618349831        2.3020590587       -3.1393401549
 H         0.4560118797        3.0903919066       -4.1175950975
 H         1.1624118011        1.6694296557       -3.3813423428
 H        -0.4212376035        6.5220905023       -2.7606324321
 H        -0.8295008365        5.0442246803       -3.7181378296
 H         0.8193582004        5.7170487067       -3.7255312850
 H         0.7833751618        6.5158047013       -0.5644609361
 H         1.5066782682        5.0860028681       -0.0942651822
 H         2.2302049315        5.8716800453       -1.2944197204
 Na        2.6824588502        0.7635470541       -1.4189523363
