155

 C         5.9264458800       -1.1136117758       -2.4511000983
 C         5.5137105199        0.3176216999       -2.8527336689
 C         6.3638007294        1.6032834111       -2.4467016046
 C         6.1152427894        1.9330794639       -0.9233330671
 C         7.3275928756        2.3740749078       -0.0249125124
 C         7.8374487742        1.3887204999       -2.8778849817
 C         5.7721586057        2.7651527216       -3.3271926393
 O         4.3830124990        0.5177349329       -3.3388363006
 O         4.9716583957        1.7582408281       -0.4949021613
 C         7.0331271392        1.9967739270        1.4866277343
 C         6.9194181980        0.4567456483        1.5378455985
 C         6.4120583651       -0.1759049271        3.0469076575
 C         4.9719854922       -0.4434451844        3.0270043661
 C         4.4905880362       -1.8167179943        2.6003326396
 O         7.3535565391       -0.3172884858        0.7037869830
 O         4.1780478515        0.5135028855        3.1133811437
 C         7.2485963720       -1.4860483479        3.2987614168
 C         6.8155956054        0.8433150384        4.1452566049
 C         3.0397125661       -2.0955868126        2.2797877813
 C         2.5868543770       -1.0414283233        1.2128457892
 C         1.4197011481       -0.0722716085        1.5323915301
 C         0.3521607113       -0.3695040644        0.3757657387
 C        -1.1045021854       -0.7690741368        0.5315494017
 C         0.7643761659       -0.2299254934        2.8009776550
 C         1.9357020433        1.3924699207        1.4635039468
 O         2.9898604020       -1.1828275900        0.0991760668
 O         0.8330373481       -0.2832209080       -0.7837693271
 C        -1.3401277207       -2.0327859407       -0.2421866041
 C        -0.5748825711       -3.1806056771        0.4956897061
 C        -0.8705304186       -4.6636889730        0.0774160668
 C        -2.3968100388       -4.9584038645       -0.2705113441
 C        -2.7304538084       -6.1789746417       -1.2440996059
 O         0.3220162641       -2.9617738915        1.3068520166
 O        -3.2878785121       -4.2932029364        0.1948760677
 C         0.2177290698       -4.9616901905       -0.9916354540
 C        -0.7182345188       -5.5596642694        1.3642722856
 C        -3.8563664557       -5.9044099621       -2.2509319733
 C        -3.4497534204       -4.8087614008       -3.2535532190
 C        -4.6221503202       -4.1793920088       -4.0772057459
 C        -5.5746769867       -3.6185644873       -2.9245768129
 C        -5.2691292103       -2.3505655729       -2.0876132246
 C        -4.1783926885       -2.9710395996       -5.0891406083
 C        -5.2981666958       -5.2954883875       -4.9337361741
 O        -2.2855631954       -4.3589502602       -3.1857553026
 O        -6.6312181668       -4.0937603211       -2.6933822062
 C        -6.0471246498       -2.2053968551       -0.7233116275
 C        -5.2177220685       -1.7775044541        0.4963437073
 C        -5.8135479768       -1.8217783536        1.9387654066
 C        -5.5813492139       -0.4387779782        2.7021151082
 C        -5.5869547484        0.8160815765        1.8935003708
 O        -4.1040900462       -1.3496603686        0.3206112075
 O        -5.3614060389       -0.3840061941        3.8726326681
 C        -7.2926192699       -2.0931691614        1.9380848721
 C        -5.1024523025       -2.9567100441        2.6771960703
 C        -5.3850233807        2.1010017475        2.7368266472
 C        -5.1651015297        3.4418854667        1.8285917203
 C        -4.6002999531        4.6576089140        2.4227027853
 C        -3.1883496397        5.0233890538        1.8947264010
 C        -3.0786407412        5.2335238455        0.3723702328
 C        -5.5924039051        5.8263833742        2.0997231855
 C        -4.5048153587        4.5099670699        3.9726628642
 O        -5.5952938904        3.3333316213        0.6961238998
 O        -2.1743026290        5.0113526311        2.5984616194
 C        -1.6996924939        5.5406928349       -0.1875445006
 C        -1.0083219481        4.3223743422       -0.8948538303
 C         0.3721057149        4.5852024492       -1.6956799206
 C         0.9918047464        3.2268916218       -2.0697419228
 C         0.3970130690        2.3533688370       -3.2152703437
 O        -1.5786340110        3.2564156211       -0.9639047505
 O         1.9592413544        2.7511433121       -1.4901238648
 C        -0.1005244998        5.3113222020       -2.9541760365
 C         1.4375548951        5.3390266028       -0.8830874435
 H         6.6862231101       -1.5812321090       -3.0797883200
 H         6.4136679678       -1.1829079411       -1.4790315361
 H         5.0840028677       -1.8208600545       -2.4139861202
 H         8.1794719514        1.7953440121       -0.3337966027
 H         7.4615821359        3.4535727282       -0.1889361523
 H         8.3778267830        0.4529841623       -2.5739789859
 H         8.4253644649        2.2331888370       -2.4354153929
 H         8.1087432436        1.5154560711       -3.9176263031
 H         4.7335672073        3.0435544161       -2.9442967623
 H         6.3054203498        3.7684033692       -3.1822882094
 H         5.7132425716        2.4146338453       -4.3289572686
 H         7.7851242708        2.2756469427        2.2873227421
 H         6.0133086606        2.3761412045        1.7309884160
 H         4.9913785437       -2.0317109071        1.5986358094
 H         4.7776836619       -2.6269631959        3.3054759220
 H         6.8794759267       -1.8234293560        4.2400564511
 H         8.2894837530       -1.1936250003        3.5817497988
 H         7.2329945711       -2.1703016149        2.4412772001
 H         6.0345051953        1.5771376221        4.2407522368
 H         6.9459307919        0.3416725483        5.0471927970
 H         7.7608131071        1.3214192030        3.9463632416
 H         2.4443883517       -2.2040218188        3.2028504739
 H         3.1892076306       -3.0412109484        1.8116268800
 H        -1.3043533885       -1.0094150609        1.6413868918
 H        -1.7731153735       -0.0003363695        0.2454786166
 H        -0.0099083338        0.5326583380        2.7455426254
 H         1.4747213613       -0.2120968945        3.6792336906
 H         0.1991172172       -1.1676028769        2.8381831162
 H         2.9295092930        1.5006874534        1.7888191856
 H         1.7205123001        1.7756874904        0.4204409352
 H         1.4273264731        1.9008704112        2.2458797576
 H        -2.3455710787       -2.3265629752       -0.3328525632
 H        -0.9353111950       -2.0229955330       -1.2658645815
 H        -1.8567968247       -6.5168914729       -1.8213720443
 H        -2.9049844512       -6.9886786016       -0.4846368809
 H        -0.0674332654       -4.4767676577       -1.9237191500
 H         0.3861164296       -6.0349120623       -1.1201980505
 H         1.1402174283       -4.6282811143       -0.6293289228
 H        -1.4728483641       -5.2293562900        2.0814874007
 H        -0.8109223739       -6.6245498406        1.2150430894
 H         0.1577957509       -5.4580833895        1.9180384395
 H        -4.7604944454       -5.7795131644       -1.6270928092
 H        -4.0899884867       -6.8435410773       -2.7859712512
 H        -4.2107193431       -2.4189485978       -1.7117335482
 H        -5.4631756569       -1.4266675075       -2.7232278125
 H        -4.8973815775       -3.0688070781       -5.9821064049
 H        -3.1410088697       -3.2854311668       -5.4487991913
 H        -4.0958785875       -1.9915214982       -4.7102465356
 H        -4.7756477331       -6.1747731792       -4.5786521285
 H        -6.2794086891       -5.5146568082       -4.5368136068
 H        -5.2787190216       -5.1294464261       -6.0313980908
 H        -6.8562483332       -1.4242837502       -0.7662551128
 H        -6.6137972222       -3.0436350953       -0.6058641696
 H        -4.8231531360        0.8185429419        1.1745959376
 H        -6.5401121404        0.7750835991        1.3297228043
 H        -7.7214711227       -1.4408755913        1.0574178885
 H        -7.6521380482       -1.9309645558        2.8793858146
 H        -7.5208483632       -3.1373623649        1.8521456404
 H        -4.0826789944       -3.0369517249        2.4375646616
 H        -5.1886923238       -2.7794276472        3.7838035571
 H        -5.5916731632       -3.9329407016        2.5481524540
 H        -4.4833952378        1.8636341484        3.4137850816
 H        -6.1216649924        2.2098666752        3.5684378610
 H        -3.4552157721        4.3499140199       -0.1003061113
 H        -3.8771920921        5.9549653978        0.1363865462
 H        -5.8608993822        6.4125836659        3.0083162043
 H        -6.5843971195        5.5936212932        1.5284253784
 H        -5.0998103841        6.4034512696        1.2924998311
 H        -4.2467856200        5.5093219662        4.4204415807
 H        -5.5230977004        4.2368847558        4.3325635406
 H        -3.6707056398        3.8757786841        4.2389439478
 H        -1.6567121088        6.4809199607       -0.8079366784
 H        -1.0909531198        5.8362249523        0.6190763491
 H        -0.7054388171        2.4652502960       -3.3448820490
 H         0.7815349985        2.8144275909       -4.0896104991
 H         0.8517520509        1.3570643435       -3.2324907236
 H        -0.5257211119        6.2833066058       -2.6215967941
 H        -0.7825887512        4.7863025221       -3.5914078839
 H         0.8316264504        5.5891398492       -3.5451930028
 H         1.3176266916        6.3565993717       -0.6827033264
 H         1.5795881922        4.7377570436       -0.0104485088
 H         2.4173988435        5.5196386958       -1.3296474772
 Na        2.9666583870        0.7003465882       -1.4113335148
