155

 C         6.3146271492       -0.9834394466       -2.5054345560
 C         5.5863443713        0.3645063150       -2.7354850648
 C         6.3354462824        1.6871202864       -2.4011642102
 C         5.9936886799        2.0710182185       -0.8474725462
 C         7.0978081316        2.6464596005       -0.0150211462
 C         7.8055760895        1.4869950394       -2.6460553447
 C         5.8441798289        2.8467624993       -3.3739754102
 O         4.3858458968        0.3594016017       -3.0011138904
 O         4.8611383791        1.9478797185       -0.3739636935
 C         6.8895339810        2.1345619327        1.4894758031
 C         6.8742967347        0.5767838629        1.5684203977
 C         6.8362667434       -0.0730011309        3.0450991304
 C         5.3003593045       -0.5764199628        3.1965032868
 C         4.7684001414       -1.9256516141        2.6773940005
 O         6.7341680679       -0.1487953806        0.5930608400
 O         4.4414373083        0.2831203837        3.5846480298
 C         7.8256513931       -1.2436788203        3.0736056852
 C         7.0073261568        1.0037040934        4.1631497738
 C         3.2571681548       -1.7382734073        2.5993741992
 C         2.7740767206       -0.7869180557        1.5005353965
 C         1.4951534944        0.0179367673        1.5770004742
 C         0.4362843573       -0.3026371064        0.2938436896
 C        -0.9275026101       -0.8904613984        0.6020269857
 C         0.5787661734       -0.2449745932        2.9320250696
 C         1.8743157677        1.5999343882        1.4748379592
 O         3.4543298977       -0.6852480630        0.5447943196
 O         0.7393803828        0.0053788317       -0.8583129677
 C        -1.2987656208       -2.2106194492       -0.1672439469
 C        -0.6479751236       -3.4380595180        0.5469249063
 C        -0.9751565011       -4.8475259900        0.0765488770
 C        -2.4342633206       -5.0340625258       -0.3699279413
 C        -2.9045749577       -6.3350605947       -1.2157246494
 O         0.1529621693       -3.2668246976        1.4567150769
 O        -3.3084147663       -4.2493109058       -0.1246809854
 C         0.0966225600       -5.0644590691       -1.0418104272
 C        -0.7521507084       -5.8188489054        1.2617602802
 C        -3.9168843416       -5.9688272856       -2.2861646164
 C        -3.3872557421       -4.7987221661       -3.1325499158
 C        -4.4892934675       -4.1128343849       -4.1035278372
 C        -5.6043089222       -3.6441206837       -3.0951761257
 C        -5.2258891058       -2.5675237602       -2.0995263060
 C        -4.0678478324       -2.9537566607       -4.9188636092
 C        -5.0241190200       -5.1982119169       -5.1175048725
 O        -2.2495464401       -4.2964300665       -2.9947938394
 O        -6.7398445276       -4.0890056408       -3.1495671082
 C        -6.0226864914       -2.8157396843       -0.7584806998
 C        -5.3962652414       -1.7816209436        0.2127250787
 C        -5.9389538143       -1.8169092043        1.6767011272
 C        -5.8396362785       -0.3618815025        2.4763437789
 C        -5.6284392641        0.8773989152        1.6536755038
 O        -4.3635986147       -1.1980057825        0.0096958265
 O        -5.8794865466       -0.4003209488        3.6861499049
 C        -7.3766852553       -2.2996979709        1.7002871780
 C        -5.0283895547       -2.8879029727        2.4455911487
 C        -5.2030944224        2.0432487265        2.5831027011
 C        -5.1415712850        3.4291639483        1.7020683004
 C        -4.5677729949        4.6252627255        2.6075107076
 C        -3.1938984266        4.8908075356        1.8857597535
 C        -3.1557623817        5.2490537599        0.3923911359
 C        -5.5824916129        5.8198901745        2.3462034664
 C        -4.2915059526        4.2196758543        4.0505185126
 O        -5.5430430511        3.4983305743        0.5960718225
 O        -2.1297600673        4.8632421720        2.4515868359
 C        -1.7748134578        5.4611363137       -0.2460846939
 C        -1.1049519470        4.2274098704       -0.8684729882
 C         0.2353232555        4.4424952522       -1.6763494427
 C         0.8745673565        3.1171521023       -2.0653080754
 C         0.1104244425        2.2520353190       -3.0005622346
 O        -1.6681235434        3.1520923167       -0.9625063371
 O         1.9704536347        2.8068763580       -1.5441168589
 C        -0.0887068986        5.3055358382       -2.8995394394
 C         1.2368166663        5.2546214024       -0.7710355518
 H         7.0062721098       -1.3500020416       -3.3158233058
 H         6.9342105855       -0.9449290508       -1.6003095166
 H         5.7119511343       -1.8332025763       -2.3701950924
 H         8.0046520065        2.2022229138       -0.3554913015
 H         7.0540929383        3.7303604519       -0.0763106649
 H         8.3223568840        0.6960519375       -2.1171854216
 H         8.2680652708        2.4471355229       -2.6753437334
 H         8.0262381556        1.0457999445       -3.6025009679
 H         4.7848103324        2.8312967517       -3.4961453198
 H         5.9199099354        3.8743238378       -3.1311949469
 H         6.3767294577        2.5642363780       -4.2343107744
 H         7.6610000698        2.5545833791        2.1761325488
 H         5.9353445858        2.3687134986        1.8235419782
 H         5.2218933793       -2.3050531976        1.7374139698
 H         4.9536170114       -2.7442904652        3.4061230482
 H         7.4732770839       -1.9799140888        3.8154566602
 H         8.8068180259       -0.9180795475        3.5695461307
 H         7.8259532953       -1.5982504219        2.0695178583
 H         6.3987437371        1.9370126851        3.8879631423
 H         6.6620299897        0.6187551061        5.1350896323
 H         8.0286994830        1.4271994678        4.2688189363
 H         2.9658000475       -1.5439091260        3.6599481169
 H         2.8322224014       -2.6850524946        2.3290627152
 H        -0.9490055971       -1.1800637994        1.6961988119
 H        -1.6730358344       -0.1838395280        0.3394494080
 H        -0.3020158044        0.3914612359        2.9904183972
 H         1.1037361882        0.1982032071        3.7676817250
 H         0.3814470088       -1.3466864831        3.1092966616
 H         2.4772713248        1.8462202916        2.2756455728
 H         2.5024460146        1.6267205831        0.5764503707
 H         0.9832224440        2.2384843588        1.5308920574
 H        -2.2979746717       -2.3121447241       -0.3352641012
 H        -0.7880022928       -2.3019558919       -1.1060057207
 H        -2.1293017377       -6.9863066460       -1.6480437673
 H        -3.5439958357       -6.9574043763       -0.4916071493
 H        -0.1230184270       -4.5897059571       -2.0202494619
 H         0.1531111248       -6.1563908222       -1.2089461613
 H         0.9736785408       -4.6166123344       -0.6467855553
 H        -1.2891491471       -5.5221816791        2.2041860227
 H        -1.1831174761       -6.8874992880        1.0454442400
 H         0.2928978815       -5.9152089161        1.5146439621
 H        -4.8914781012       -5.8408439106       -1.7832666382
 H        -4.1614562547       -6.9285454887       -2.7806410018
 H        -4.1243271860       -2.6478998443       -1.8834306706
 H        -5.5197496247       -1.5111998246       -2.2665642819
 H        -3.2076884239       -3.1686334588       -5.4978088649
 H        -3.9738773547       -2.0450280478       -4.3283904288
 H        -4.9473647270       -2.7212299094       -5.4291508159
 H        -4.4123184525       -5.0812814671       -6.0094165089
 H        -5.1466966419       -6.1956172180       -4.7393890201
 H        -5.9394068630       -4.7157686739       -5.5404508089
 H        -7.1035111377       -2.4701671351       -0.8738329428
 H        -6.0103296494       -3.8094927888       -0.4645492885
 H        -4.8936984026        0.7982950857        0.9173190603
 H        -6.5250396414        1.1491909499        1.0741961316
 H        -7.9641693424       -1.4800267875        1.1392766625
 H        -7.8030537191       -2.3872843522        2.6824928900
 H        -7.3744075595       -3.2552545050        1.1396819655
 H        -4.0454024821       -2.5587790967        2.6449052178
 H        -5.3302380333       -3.0799343194        3.4599331675
 H        -4.9797535597       -3.7944663949        1.8165370356
 H        -4.1239143648        1.9855173556        2.8857906238
 H        -5.8407118907        1.9640165354        3.5055327513
 H        -3.8313927951        4.6243567527       -0.1425652296
 H        -3.6915392338        6.2223922187        0.2553271660
 H        -5.0871028734        6.6399987880        1.7685966486
 H        -5.8818495889        6.1958357093        3.3225230192
 H        -6.3695585689        5.5509099376        1.6521908637
 H        -4.0132585647        5.1825907616        4.5800162893
 H        -5.2407700516        3.8655215818        4.4377949315
 H        -3.5029516080        3.4402538468        4.1194947196
 H        -1.9231295467        6.2550183045       -1.0141978612
 H        -1.1153319521        5.9399784904        0.3632956768
 H        -0.9572561712        2.0770548304       -2.6489571124
 H         0.1701403533        2.6076874009       -4.0062873366
 H         0.6429217351        1.3193455789       -3.0007255403
 H        -0.2686735840        6.3152540182       -2.6462108744
 H        -0.9217946486        4.9953509382       -3.4721545177
 H         0.8358696600        5.2339214860       -3.5457430808
 H         0.8495787149        6.2536051890       -0.3400524067
 H         1.4579935096        4.6742987461        0.1890804902
 H         2.1878519213        5.5560382688       -1.2385537544
 Na        3.0358941135        0.7250516241       -1.4427682082
