155

 C         5.9816126398       -0.7847219800       -2.4156661254
 C         5.2278652702        0.4257157450       -1.8721744880
 C         5.8603089232        1.8947780329       -1.9199718846
 C         5.6878211502        2.6455342684       -0.5278817172
 C         6.8980126713        3.0854368054        0.2712516416
 C         7.4020717789        1.7689536273       -2.3670538020
 C         5.2212411283        2.6909004353       -3.0995353713
 O         4.1599845666        0.2540576880       -1.3605022034
 O         4.5917579760        2.7125203089        0.0453395803
 C         6.8988678425        2.3922641470        1.6968468563
 C         7.0980427487        0.9389632895        1.6832107579
 C         7.0582720259        0.0273029710        3.0330884923
 C         5.5232957555       -0.1180085408        3.2810898848
 C         4.6831357710       -1.3429121800        2.9419619887
 O         7.2549778502        0.4095272817        0.5804240163
 O         4.8701728426        0.7803497258        3.7837690969
 C         7.5700215974       -1.4330814360        2.7831061936
 C         7.7291456390        0.4644274006        4.3323773729
 C         3.1938556118       -1.0557275626        3.2433265913
 C         2.5616077443       -0.0016185263        2.4257357396
 C         1.0198138774       -0.0498756656        2.4595478812
 C         0.6751786176       -0.6993820231        1.0787942534
 C        -0.7323601106       -1.2897236438        0.7067638654
 C         0.4449875090       -0.8433012602        3.5519796219
 C         0.4788627161        1.4271764029        2.5133863158
 O         3.2081855343        0.7985875471        1.8684321889
 O         1.3985229547       -0.6635322359        0.0891120697
 C        -0.4795711801       -2.3616932576       -0.4007041241
 C         0.0358158876       -3.5829733086        0.2925442968
 C        -0.1794016432       -5.0234547958       -0.3053792290
 C        -1.7046741472       -5.1817733898       -0.7246943588
 C        -2.0336672827       -6.4193916881       -1.6445323091
 O         0.8932435702       -3.4584432948        1.1664527269
 O        -2.6018133167       -4.5832491261       -0.2024194117
 C         0.7155826951       -5.0415539826       -1.5486825855
 C         0.0568725639       -6.1775384144        0.7266524009
 C        -3.2607438938       -6.0108998037       -2.5590128724
 C        -2.8654838090       -4.7803867210       -3.4112736362
 C        -3.9884984346       -4.2401412122       -4.4396299427
 C        -5.1076913182       -3.6315747237       -3.4388583952
 C        -5.1153495789       -2.0776642275       -3.1881866637
 C        -3.2888790764       -3.2322785773       -5.4615953148
 C        -4.6932185967       -5.4031200319       -5.1859535521
 O        -1.8495112139       -4.1413723132       -3.1986722107
 O        -5.8846922698       -4.3147479501       -2.7469808095
 C        -6.1112817836       -1.6198498705       -2.1701666403
 C        -5.4966230490       -1.4817562662       -0.7324141354
 C        -6.4660244830       -1.5682228001        0.5571796512
 C        -5.6141823413       -0.8346508020        1.7373764503
 C        -5.7556923122        0.7625839937        1.5736252494
 O        -4.2752201248       -1.5083900619       -0.6554971282
 O        -4.8651994801       -1.2661612053        2.5690162045
 C        -7.8735176785       -1.0831034398        0.1884404909
 C        -6.5922817657       -3.0435139563        0.8502491070
 C        -4.8110368239        1.7063226451        2.3575921707
 C        -5.3539336714        3.1811482760        2.0442183989
 C        -4.5204814372        4.3490927909        2.8235430153
 C        -3.2284414998        4.5347441398        2.0890746301
 C        -3.3563478293        5.0636119524        0.6470885702
 C        -5.4575667967        5.5981595428        2.8417901443
 C        -4.2822879982        3.8568676219        4.2418489554
 O        -6.1963127141        3.3939050129        1.2552915275
 O        -2.1660263226        4.4127644021        2.6012927400
 C        -2.0398489250        5.2001328537       -0.0988079554
 C        -1.8541825088        4.0773910046       -1.1781300357
 C        -0.4938354249        4.0720062720       -2.2679395928
 C         0.3453408115        2.8555264435       -1.8749051083
 C         0.3605515002        1.6170859802       -2.7467150690
 O        -2.5874670203        3.1219722549       -1.1718302457
 O         0.9667029436        2.8873384643       -0.8385740065
 C        -1.1652206646        4.0407652201       -3.6185534083
 C         0.3558455792        5.3871458589       -2.1965144350
 H         6.0519945083       -0.6770326899       -3.5247951220
 H         6.9819834981       -1.0703765545       -2.1372814517
 H         5.3774144072       -1.6396516202       -2.2203069864
 H         7.7493068321        2.6481942392       -0.2250622300
 H         6.9401145910        4.1408309132        0.4371960263
 H         7.9973283869        1.0978192348       -1.7840671015
 H         7.7026472272        2.7788542684       -2.1754155479
 H         7.5145521556        1.5272514523       -3.4306709485
 H         4.2236647816        2.9686006366       -2.8967460996
 H         5.6906293894        3.6616958922       -3.0993336930
 H         5.4212447981        2.4229235763       -4.0461231906
 H         7.8078789012        2.8306607626        2.2183943410
 H         5.9468449568        2.5819359275        2.3203333844
 H         4.7482910346       -1.7413904207        1.9325361273
 H         5.1182145737       -1.9761183087        3.8066462278
 H         7.3867655569       -2.1667077859        3.5796401306
 H         8.5992943506       -1.3815061037        2.4992633034
 H         7.1523577095       -1.8129107924        1.8027488228
 H         7.1369229633        1.1853812314        4.8557145546
 H         7.8812914465       -0.3692588126        4.9966196938
 H         8.7195491050        0.9282526464        4.1869361767
 H         3.0481269758       -0.7198743815        4.2665091306
 H         2.7349815402       -2.0243976166        3.1267026897
 H        -1.2320618019       -1.7104532744        1.5377549177
 H        -1.3713913964       -0.4422346161        0.3198559987
 H        -0.6159449422       -0.6662946949        3.7467573632
 H         1.0539211029       -0.5635852333        4.5155505619
 H         0.4296739455       -1.9087740716        3.5322558804
 H         0.1778548781        1.6207079848        3.5567515373
 H         1.2549032687        2.1978489798        2.3689241542
 H        -0.3892393966        1.5971271447        1.9823327446
 H        -1.5414998994       -2.5559646187       -0.9214636651
 H         0.2606782232       -1.8505140793       -1.0558054682
 H        -1.0721993376       -6.7782299948       -2.0934686748
 H        -2.3813382226       -7.3284218054       -1.0994102004
 H         0.4987138149       -4.1042347676       -2.0696369352
 H         0.5968807786       -5.9523520561       -2.1591337056
 H         1.8295035788       -4.8856114146       -1.3168612509
 H        -0.9828326915       -6.5729854464        0.9818616743
 H         0.5252618161       -7.0025589714        0.1080772641
 H         0.6998493595       -5.9156922850        1.5531456507
 H        -4.1722576092       -5.7652726629       -2.0141056907
 H        -3.4590400420       -6.7377972207       -3.3802925112
 H        -4.1065029794       -1.7146041636       -2.7440133514
 H        -5.3858720106       -1.4659405016       -4.0371939646
 H        -2.1824908624       -3.0298036123       -5.3178401639
 H        -3.8171380358       -2.3071123345       -5.3807657045
 H        -3.3207343827       -3.5206748739       -6.4794038992
 H        -4.2099435733       -5.8147408579       -6.0781742799
 H        -4.6641602252       -6.2203086751       -4.4772322167
 H        -5.7017219803       -5.2918870383       -5.4741698028
 H        -6.5855596029       -0.7312298158       -2.4439665053
 H        -6.9941426687       -2.2761342587       -2.1584765630
 H        -5.5590964181        1.0285311486        0.4454208301
 H        -6.7941583432        1.0184784672        1.7137454543
 H        -8.1155384102        0.0352068508        0.2164664379
 H        -8.5500439757       -1.3673119052        0.9667792933
 H        -8.2704139630       -1.4335715841       -0.7902550994
 H        -5.6288405654       -3.5462939241        1.0806527218
 H        -7.1719384891       -3.2467313384        1.7939904920
 H        -6.9287445039       -3.5809702900       -0.0070739809
 H        -3.7410822955        1.7637738709        2.1035615765
 H        -4.8369456592        1.5808433663        3.4582639281
 H        -4.0702270797        4.5423670009        0.0580305305
 H        -3.7687844723        6.0744245635        0.7314066257
 H        -6.3116566655        5.5117243265        3.4201575093
 H        -5.7163098716        5.8835063474        1.8167592613
 H        -4.9981832923        6.3631643411        3.3809476998
 H        -3.9197854567        4.6830256530        4.7863180684
 H        -5.1752133785        3.4939117211        4.7933600757
 H        -3.5066292867        3.1561916485        4.3573274422
 H        -1.9501579715        6.1416453866       -0.6524723912
 H        -1.1461352194        5.2289605144        0.5043001556
 H         0.9422020489        0.7875340452       -2.3882799681
 H        -0.6638683471        1.2472094852       -2.8815932041
 H         0.6140584259        2.0273582209       -3.7453939725
 H        -1.8290950242        4.9223176848       -3.7734759369
 H        -1.8393430587        3.1795068409       -3.7021507941
 H        -0.5069089904        3.9790156077       -4.4226391293
 H        -0.3464641984        6.1613404855       -2.1979983769
 H         0.9286700171        5.3165749512       -1.2878757398
 H         1.1730344223        5.2088440477       -2.9628080828
 Na        2.6030797090        1.4467360805       -0.2809378618
