155

 C         5.7957577161       -0.7422965912       -2.4713498181
 C         5.1645748338        0.4328027535       -1.8932335459
 C         5.9199137210        1.8601026343       -1.9233080020
 C         5.7413839508        2.5585793828       -0.4957187054
 C         6.9738020893        2.9990859229        0.4295703232
 C         7.4045597489        1.7084310535       -2.3544110976
 C         5.0854990694        2.8321599381       -2.7939973480
 O         3.9561695037        0.4465134733       -1.6462436817
 O         4.6099027374        2.6884226862       -0.1323964454
 C         6.9519448263        2.4231143900        1.8961944965
 C         7.0171161751        0.9137184237        1.7530473480
 C         6.8894245974        0.0103162558        2.9455587982
 C         5.4249116273       -0.0085327205        3.4096687571
 C         4.6422548602       -1.1950031755        3.1312948780
 O         7.1784029206        0.4846422848        0.6314609374
 O         4.9766768225        0.9390381704        4.0377803748
 C         7.4621260597       -1.3597086196        2.5202800924
 C         7.6977176839        0.4889282686        4.2281566324
 C         3.1628808262       -1.2167845374        3.4600616649
 C         2.4335469814       -0.1849497373        2.6979780521
 C         0.9162255152       -0.0790679588        2.5182498520
 C         0.5924177508       -0.5548414942        0.9661522098
 C        -0.7396499821       -1.1586792300        0.6941126562
 C         0.1709720472       -0.9019019622        3.5821497326
 C         0.4774473310        1.3834218760        2.5208228619
 O         3.1794584511        0.5571487089        2.0014305851
 O         1.4156139524       -0.3706131515        0.1132077895
 C        -0.6738481556       -2.3856428570       -0.2727088102
 C         0.1421911449       -3.5658392339        0.2978588875
 C        -0.0576734950       -4.9169086167       -0.4116086828
 C        -1.5891580009       -5.2088981826       -0.7129906387
 C        -2.0040348795       -6.3554997708       -1.6401536237
 O         0.9049913554       -3.4603018137        1.2422576095
 O        -2.4785983984       -4.5690757629       -0.0904087271
 C         0.8934147806       -4.9936383851       -1.6728632048
 C         0.3764261418       -6.1202856923        0.6115570059
 C        -3.1137167609       -6.0958599783       -2.6019958777
 C        -2.8148684553       -4.7941767235       -3.5251900938
 C        -3.8950992239       -4.2906125220       -4.4200956575
 C        -4.9968185085       -3.5686306670       -3.4038015402
 C        -5.1189932444       -2.0958404070       -3.4476694705
 C        -3.2835650187       -3.1691763469       -5.4667043139
 C        -4.6200286516       -5.4691199599       -5.1089575085
 O        -1.7916169229       -4.1912441343       -3.3815970952
 O        -5.6951484213       -4.2970430553       -2.7714041832
 C        -6.0918892312       -1.6149277664       -2.2058588028
 C        -5.4365958913       -1.5423075972       -0.8676083104
 C        -6.3755111392       -1.5987759513        0.3854691810
 C        -5.6105228392       -0.7762031971        1.4724741508
 C        -5.7912461522        0.7004847053        1.4234022922
 O        -4.2359610832       -1.5476785333       -0.6539369428
 O        -4.9236663710       -1.2933971208        2.3279800339
 C        -7.7338734199       -0.8771893797        0.2591514645
 C        -6.5547701855       -3.0873378915        0.7078713066
 C        -4.9297429449        1.5763973974        2.2823087703
 C        -5.2463447841        3.0967844253        2.1866012041
 C        -4.4880575481        4.3075011916        2.9194618789
 C        -3.0700411060        4.6159841825        2.1449406498
 C        -3.2031723068        5.0347495610        0.7323205717
 C        -5.4081644957        5.5608912192        2.6787882571
 C        -4.2556162937        3.9870153453        4.4280843682
 O        -6.1372697607        3.3369412069        1.3392016302
 O        -1.9859350706        4.4183613866        2.6735708003
 C        -1.9510676045        4.9889370788       -0.1090733223
 C        -1.9398584141        3.9548892909       -1.3321626878
 C        -0.6222007649        4.0661943016       -2.3047213357
 C         0.2220718370        2.9006738446       -1.8290120749
 C         0.1961700261        1.4819060366       -2.5253605635
 O        -2.7159608340        3.0314721374       -1.3661959493
 O         0.9662392475        3.0151379540       -0.8461043729
 C        -1.2628829340        3.8082692174       -3.7212133914
 C         0.0988349716        5.3890023655       -2.1060491524
 H         5.5219703830       -1.0057950352       -3.4477788660
 H         6.8989662433       -0.7110815368       -2.5158891675
 H         5.6231870979       -1.6188940806       -1.7691041386
 H         7.8975365446        2.7620077041       -0.1036032094
 H         6.8285807789        4.0719125002        0.7373312234
 H         7.8504305543        1.1699075627       -1.4930301050
 H         7.8977517695        2.6631060404       -2.5473197586
 H         7.4453620944        1.1370820194       -3.2988269000
 H         4.0082014980        2.7570541365       -2.4820497428
 H         5.3941782911        3.8972205448       -2.8731117144
 H         5.2098777689        2.6141622218       -3.9394575844
 H         7.8462100119        2.7318324904        2.2817011631
 H         6.1221563982        2.8000891458        2.4476203776
 H         4.7559067819       -1.1644898303        2.0314150885
 H         5.1852026920       -1.9363977725        3.6292086274
 H         7.2343641819       -2.0420826466        3.3508825281
 H         8.5202089719       -1.3107007364        2.2052109925
 H         6.9968923987       -1.7990914131        1.6623918818
 H         7.3768109419        1.5241473210        4.5244014224
 H         7.5390917330       -0.1713831945        5.1444750967
 H         8.8006608839        0.4905645818        4.0994504449
 H         3.0535857773       -1.2897154232        4.5586603892
 H         2.8067752308       -2.1570034558        3.0031463330
 H        -1.2045517647       -1.4324216420        1.6748272690
 H        -1.2814486158       -0.3363487181        0.2318175496
 H        -0.9017380873       -0.8873211705        3.3592736342
 H         0.3753846195       -0.5959540947        4.5537492939
 H         0.3279005795       -1.9760882371        3.6135611996
 H         0.9928662691        1.9844757309        3.2676754211
 H         0.6699346624        1.9949780139        1.6700663755
 H        -0.6267508256        1.3501213309        2.6984975697
 H        -1.6356123475       -2.6549309976       -0.4219394216
 H        -0.2227570734       -2.0056783439       -1.1786543690
 H        -1.0824154169       -6.6370581962       -2.1431971356
 H        -2.2343022169       -7.2460614802       -1.0465903626
 H         0.6611280638       -4.2563208187       -2.4453068957
 H         0.8607382389       -6.0650510714       -1.9513087680
 H         1.9300842188       -4.8567193111       -1.4186649785
 H        -0.0229597190       -6.0098238936        1.5837713064
 H         0.0718120916       -7.0409527489        0.2148306207
 H         1.5055844817       -6.1064616546        0.5559277716
 H        -4.0186918317       -5.8168785528       -2.0270000871
 H        -3.2988307878       -6.9182650247       -3.2520739899
 H        -4.1968649543       -1.6185162289       -3.5189328246
 H        -5.7527461349       -1.7989703894       -4.3008526073
 H        -2.3977073349       -2.7723736358       -4.9604850205
 H        -3.9008257284       -2.3166787154       -5.8157704524
 H        -2.8184449059       -3.6270213116       -6.4047134767
 H        -4.1616073377       -6.4297088242       -5.0538463688
 H        -5.5987090538       -5.6741969534       -4.6717232321
 H        -4.7225240225       -5.2975684035       -6.2091950520
 H        -6.6045917401       -0.5916915009       -2.3862401238
 H        -7.0143853718       -2.2073956371       -2.1655912721
 H        -5.6874616796        1.0594302295        0.4536282372
 H        -6.9085875428        0.7425702110        1.6082968938
 H        -7.6853447798        0.1050919201       -0.2705064826
 H        -8.2331467790       -0.6281729734        1.1755451945
 H        -8.4465069865       -1.3753900965       -0.3263914074
 H        -5.6486637639       -3.7025332289        0.6591226305
 H        -6.9346016553       -3.1327278827        1.7042330500
 H        -7.2109210026       -3.6526347917       -0.0050211806
 H        -3.8844462848        1.5569852877        1.9298533719
 H        -4.9688908940        1.2399329609        3.3120689171
 H        -4.0473757093        4.4408438460        0.2952948216
 H        -3.6350035244        6.0409215500        0.6598007364
 H        -5.9497142420        5.8478097501        3.6417119117
 H        -6.0509222026        5.4624206757        1.7668057305
 H        -4.8492484937        6.5592217075        2.6049141872
 H        -3.8448274367        4.7995473333        5.0731537317
 H        -5.1243726566        3.5617897343        4.8704809941
 H        -3.4384576791        3.2195254299        4.5625407790
 H        -1.5873974520        5.9961870492       -0.3870101588
 H        -1.0222044841        4.6285532695        0.4275714516
 H         0.7597492617        0.7638518737       -1.9231945569
 H        -0.8256582130        1.0808624601       -2.5885258634
 H         0.4868724862        1.5821861004       -3.5373774849
 H        -1.7623356015        4.6661201960       -4.0401902376
 H        -1.9789613113        2.9873707772       -3.7453818943
 H        -0.5180212888        3.5405750518       -4.5129179097
 H        -0.7434703538        6.0640736095       -2.2221550716
 H         0.4833141649        5.3683503834       -1.1112592678
 H         0.9169442478        5.4211974880       -2.7256293172
 Na        2.5409639514        1.5421179625       -0.1045076381
