155

 C         5.7176614096       -0.4337796756       -2.1434545236
 C         4.9885830459        0.7931083533       -1.9187690481
 C         5.7616454420        2.1214719948       -1.8487678086
 C         5.6745863461        2.5184792357       -0.2942726154
 C         6.9894523476        2.8305718949        0.5256033480
 C         7.2427630703        1.8313158107       -2.2755149581
 C         5.0709503485        3.2301474922       -2.7593232832
 O         3.7758165354        0.8026645800       -1.6965731850
 O         4.5876410152        2.6949711349        0.1973814529
 C         6.9303740021        2.2037706623        1.8157922262
 C         6.8904049345        0.7235778727        1.7195111645
 C         6.9092787062       -0.1061580370        3.0708791039
 C         5.5063274851       -0.1156832663        3.7601142897
 C         4.5354520237       -1.2317950765        3.4898218292
 O         6.6034255960        0.2406881832        0.6545573614
 O         5.1167624129        0.8515129316        4.4062997817
 C         7.4663170276       -1.4132602789        2.6081388481
 C         7.8103399195        0.5613848291        4.0429632027
 C         3.0371083480       -0.9099375811        3.8085605984
 C         2.4027610145       -0.1939172099        2.6353604444
 C         0.7769499059       -0.1899419460        2.5117509450
 C         0.2153871713       -0.4899955920        1.0445760366
 C        -1.1051429115       -1.2555114491        0.7775743819
 C         0.0737621155       -0.9700709240        3.6666140662
 C         0.3833991240        1.3354427916        2.6971408789
 O         3.0428927453        0.5378360254        1.8778041166
 O         0.9190845739       -0.0587440404        0.1923939927
 C        -0.7901757370       -2.3643546558       -0.3502195684
 C         0.0754590691       -3.4553976389        0.3223038237
 C         0.1406625208       -4.8357318188       -0.3998102059
 C        -1.2994956916       -5.3694888452       -0.6931795698
 C        -1.6116263324       -6.2775578519       -1.8646963720
 O         0.6931156162       -3.1925393234        1.3608819004
 O        -2.1695705626       -5.1319183117        0.1752275976
 C         0.9392461142       -4.6376977492       -1.7553719236
 C         0.9864388533       -5.7958255390        0.4849158966
 C        -2.9265478987       -5.9902028838       -2.5679825304
 C        -2.5911333644       -4.8404264698       -3.5381530370
 C        -3.8386182947       -4.4325676673       -4.4639147122
 C        -4.9045372910       -3.6379806904       -3.6495279525
 C        -5.1578885398       -2.1195209592       -3.6799907996
 C        -3.2335561455       -3.3635195025       -5.3721264692
 C        -4.5343233064       -5.5452726618       -5.1661537440
 O        -1.5477043979       -4.2794788868       -3.6227951846
 O        -5.3676250387       -4.2678355097       -2.7103763723
 C        -6.0509084578       -1.6936119289       -2.4780264932
 C        -5.3362429341       -1.4653731105       -1.1037177524
 C        -6.2344803843       -1.5351726872        0.2502025963
 C        -5.5319583872       -0.6675602406        1.3421539299
 C        -5.7152438882        0.9407130568        1.1647094411
 O        -4.1214546790       -1.3787977164       -1.0248030211
 O        -4.7563353099       -1.1113064269        2.1200550295
 C        -7.6822877346       -1.0721863816        0.0483508354
 C        -6.1562778773       -3.0711476074        0.5668963597
 C        -5.0681235673        1.6016233281        2.2575692106
 C        -5.2374535712        3.1866526735        2.1684056706
 C        -4.4177108749        4.1829605930        3.0308571184
 C        -3.0281649250        4.3255239240        2.2230111738
 C        -3.2553778261        4.7031638468        0.7324566886
 C        -5.1760167761        5.4595485584        3.1248352472
 C        -4.1184810561        3.7322339383        4.5310122036
 O        -6.1332729482        3.6237463806        1.4399384588
 O        -2.0164381693        3.9546965497        2.6934732880
 C        -1.9483054819        4.6485165646       -0.0277947235
 C        -1.9533258653        3.8927401035       -1.4043422743
 C        -0.7734389347        3.9292715495       -2.4497339025
 C         0.1665297264        2.8541388736       -1.8697917999
 C        -0.1952735866        1.3974943777       -2.0826076646
 O        -2.9089716946        3.2544577098       -1.7463446476
 O         1.1222668758        3.1631356641       -1.1840885113
 C        -1.2496099442        3.4559498694       -3.7883517875
 C        -0.0566241653        5.3094318587       -2.4519574030
 H         6.1148712168       -0.5795800741       -3.0816499627
 H         6.6029730962       -0.5727233068       -1.4565453289
 H         4.9813753151       -1.2959893244       -1.9534597449
 H         7.9501180747        2.5963838464        0.0478658754
 H         6.9255517589        3.9739243159        0.5786567305
 H         7.6789246022        1.3685625146       -1.4288084239
 H         7.6173410189        2.8073850366       -2.3563644280
 H         7.4462186590        1.3374588480       -3.2351441721
 H         4.0352985545        3.5076352325       -2.5532971940
 H         5.7362205889        4.0850539100       -2.6506188641
 H         4.9795099316        2.8965652009       -3.8161994552
 H         7.7368117467        2.3719410187        2.3629551522
 H         6.0550437023        2.4174160701        2.3902251851
 H         4.5740862648       -1.5268935814        2.4178720320
 H         4.8507829107       -2.0118956980        4.1459821837
 H         7.4496118012       -2.2338587546        3.3862765307
 H         8.5038202088       -1.1406644263        2.4137624441
 H         6.9537347065       -1.8548962833        1.7297695972
 H         7.3063241005        1.2183603985        4.7387259991
 H         8.4430257507       -0.2035803091        4.6084744617
 H         8.5430732784        1.1683249342        3.5067809049
 H         2.8135900805       -0.3059674108        4.7290635585
 H         2.7276375445       -1.9120696638        4.0257164759
 H        -1.4917637708       -1.6918117877        1.7138612097
 H        -1.7751018343       -0.5013714911        0.3390553925
 H        -1.0589261432       -0.8463667097        3.6470265404
 H         0.3670293068       -0.6034254109        4.6946681775
 H         0.3197782645       -1.9942304323        3.6486932265
 H         0.6552815020        1.6284276221        3.7275100089
 H         0.8808912442        2.0091909598        2.0442481213
 H        -0.6563578686        1.4754336623        2.4878257639
 H        -1.6958459142       -2.6422485625       -0.8461429738
 H        -0.1859529059       -1.8054967636       -1.0561090646
 H        -0.8621664588       -6.0838974468       -2.6084876387
 H        -1.5742349845       -7.3723582922       -1.6477854500
 H         0.3454975617       -3.9723189308       -2.4223125899
 H         1.2596831071       -5.5570059749       -2.3073555392
 H         1.9410582951       -4.2580499885       -1.5350967381
 H         1.5896176943       -5.0876442255        1.1258529114
 H         0.3700091084       -6.3951101803        1.1413954266
 H         1.6975373687       -6.4894169848       -0.1281425800
 H        -3.7356614141       -5.6355062123       -1.8478228962
 H        -3.3078017688       -6.8227729961       -3.1541621027
 H        -4.3045672912       -1.4758225007       -3.6404863474
 H        -5.6678085864       -1.9051047917       -4.6659181401
 H        -2.6791995756       -2.6980144707       -4.6184913032
 H        -3.9516577345       -2.7156325158       -5.8634013795
 H        -2.6557353366       -3.8151026820       -6.2332011692
 H        -4.6459286986       -6.5163752800       -4.7756162776
 H        -5.5099309703       -5.2101023425       -5.5093154570
 H        -4.0210161510       -5.5725359713       -6.1492714077
 H        -6.5098336308       -0.6163375111       -2.5889577193
 H        -6.9102460552       -2.3475316597       -2.3570795522
 H        -5.3438140000        1.2827167558        0.2151556063
 H        -6.8580292696        1.0755495249        1.1111201919
 H        -7.6239443158        0.0792577356       -0.0353987660
 H        -8.4201736644       -1.3465804911        0.7238049791
 H        -8.1430181075       -1.3502593234       -0.8170411993
 H        -5.1842908044       -3.3876796110        1.0330861883
 H        -7.0228727291       -3.2439758960        1.1552326799
 H        -6.3471483456       -3.8009785869       -0.2664313611
 H        -3.9839657355        1.3613321729        2.2862980862
 H        -5.6157223909        1.2029763774        3.0982016237
 H        -4.0009732844        4.0512794172        0.3120835765
 H        -3.7538243285        5.6407080915        0.5995340780
 H        -6.2353180232        5.2046255033        3.1064657177
 H        -4.9045003974        6.2559006243        2.3976731005
 H        -4.8768969368        6.0321025852        4.0099752240
 H        -3.4237828385        4.4419629819        4.9465008679
 H        -5.0179297190        3.8023298856        5.1152823018
 H        -3.6977744968        2.7305342528        4.7063850290
 H        -1.4106073264        5.6127610630       -0.2415851722
 H        -1.2214157800        4.1948642236        0.7365537968
 H         0.4706057010        0.8405987984       -1.4189653727
 H        -1.2723704896        1.1199325149       -1.8332089596
 H        -0.1108580129        1.1251054506       -3.1098160911
 H        -1.9159267378        4.0813731084       -4.2701406208
 H        -1.7260710157        2.4858104653       -3.6363663954
 H        -0.4299125930        3.2666217669       -4.4672303804
 H        -0.8863534235        6.0120811426       -2.4819073931
 H         0.6145139915        5.3300379123       -1.6235113740
 H         0.3466493483        5.4225684546       -3.4610603924
 Na        2.4351695863        1.6211015559       -0.1586312649
