155

 C         5.5480784118       -0.5125017687       -2.1201517810
 C         4.9425664714        0.7993710967       -1.9426638978
 C         5.7849877156        2.1887987538       -1.8320130913
 C         5.6914540267        2.6322582257       -0.2900789949
 C         6.9210937177        3.0279142247        0.5603337807
 C         7.2027043533        2.0728239360       -2.5024469741
 C         4.9691451241        3.3356195233       -2.5661880088
 O         3.7427901629        0.8285785169       -1.8434283654
 O         4.5680074324        2.7697051192        0.1726486175
 C         6.9623472447        2.3089344399        1.9661463323
 C         6.7985674111        0.6936241446        1.9188135163
 C         6.9172661276       -0.1743871580        3.1977718507
 C         5.4714406351       -0.1495549882        3.8121523315
 C         4.5062327645       -1.2136200708        3.4011487552
 O         6.2227921709        0.2241522725        0.9419626774
 O         5.1839384745        0.8235366156        4.4413909409
 C         7.2203226729       -1.6128533360        2.8598587405
 C         7.9484976994        0.2704844201        4.2288988426
 C         3.0830043182       -0.8674066228        3.8081087795
 C         2.2754303692       -0.1629874349        2.6783633752
 C         0.7177617473       -0.0465145367        2.6719595859
 C         0.3146500972       -0.5350774539        1.2078915178
 C        -1.0640509136       -1.2006716128        0.9676709616
 C         0.1269897413       -1.0276983871        3.6532717322
 C         0.1846638958        1.4456684006        2.8958754268
 O         2.8925957474        0.3525086610        1.7532775749
 O         0.9393718167       -0.2167864967        0.1462100609
 C        -0.8943306070       -2.3177824265       -0.0185692545
 C         0.0815709378       -3.3693849815        0.4056671748
 C         0.2592534843       -4.7156917133       -0.4797117727
 C        -1.1574638527       -5.4324459584       -0.6255520736
 C        -1.4381993617       -6.3985277684       -1.7577565195
 O         0.7550372592       -3.1695910304        1.3917104730
 O        -1.8477128978       -5.3742958659        0.3291219286
 C         1.0123568303       -4.3201155462       -1.7164336372
 C         1.0748872480       -5.7733701970        0.4357331218
 C        -2.6931702957       -6.0385103846       -2.5997336379
 C        -2.4656999532       -4.8764267232       -3.6543452378
 C        -3.7539120421       -4.2628060720       -4.4801628783
 C        -4.8553191344       -3.7208378097       -3.5068425365
 C        -5.1679819083       -2.2507586821       -3.6138113270
 C        -3.2976695333       -3.3868004076       -5.6438669160
 C        -4.4840855970       -5.4787956624       -5.2588106863
 O        -1.4284643956       -4.1882178116       -3.7244517536
 O        -5.2944035904       -4.3988588008       -2.6290075748
 C        -6.0411195695       -1.6002151945       -2.5238044628
 C        -5.2913057765       -1.3668859651       -1.1780082281
 C        -6.1233972068       -1.4767617702        0.1612469624
 C        -5.4174042871       -0.5190104982        1.1402856993
 C        -5.6746014725        1.0210738367        0.9825207213
 O        -4.1156568143       -1.1782029449       -1.1800962159
 O        -4.6949635621       -1.0548998674        1.9983425682
 C        -7.6165157069       -1.2909273535       -0.0716772942
 C        -5.9288177304       -2.9931052386        0.5183600805
 C        -5.1797293820        1.7178980977        2.3453573045
 C        -5.4353562948        3.1791815634        2.2670737426
 C        -4.3953199403        4.0837750375        3.0731347163
 C        -3.0009719779        4.1464917370        2.1568834670
 C        -3.1620590851        4.6603000476        0.7507628662
 C        -4.9643194133        5.5652911528        3.2660531346
 C        -4.0966951464        3.2741512146        4.3417575357
 O        -6.2534521509        3.7251719244        1.5271041768
 O        -1.9681801050        3.6767396751        2.6750596163
 C        -1.9088543621        4.5734693662       -0.1250977270
 C        -2.0890550821        3.9087036479       -1.4836887592
 C        -0.8431923632        3.9349328251       -2.5747632757
 C         0.0757007403        2.9027864332       -2.0368717511
 C        -0.2386301196        1.4090088454       -2.1973086789
 O        -3.1365379569        3.3619423728       -1.7261143968
 O         1.1070630287        3.1349425857       -1.3801769294
 C        -1.3242253803        3.6356246956       -4.0093186907
 C        -0.1468732925        5.3117112444       -2.5124086872
 H         6.3998386207       -0.6383486543       -2.8768870241
 H         5.9720547964       -0.9030351614       -1.2275598359
 H         4.7472794636       -1.1147040930       -2.4760949046
 H         7.8011830909        2.8381025867       -0.0674797557
 H         6.9613622918        4.0871931468        0.7045748022
 H         7.7270996409        1.1245889731       -2.2182793767
 H         7.7857369284        3.0101779422       -2.2380550723
 H         7.0220714425        2.1038455274       -3.5630786070
 H         3.9037028150        3.3375185354       -2.2425755006
 H         5.4192927741        4.3022118599       -2.2152329038
 H         4.8043925380        3.2048872802       -3.6615571023
 H         7.8190488450        2.6049022608        2.7369584636
 H         5.9653933006        2.4555244965        2.4631014279
 H         4.5399663437       -1.1757377216        2.3272125041
 H         4.8707362034       -2.2022124813        3.7487940560
 H         7.0672379900       -2.2840799299        3.6866875776
 H         8.3176515802       -1.6968644027        2.6891165032
 H         6.6289803557       -1.9432074211        2.0319375632
 H         7.8363044419        1.3644011402        4.5415793522
 H         7.9349843980       -0.3604917264        5.1070372658
 H         8.9618372840        0.2024648999        3.7512541556
 H         3.0382651405       -0.3021132406        4.7416284812
 H         2.7221910997       -1.8951421391        4.0704919931
 H        -1.4430401565       -1.6043661793        1.9062083864
 H        -1.7185213043       -0.4341421119        0.5549378568
 H        -0.8775022230       -0.7806389919        3.8910112460
 H         0.5604504750       -0.8495508175        4.5916120341
 H         0.3727562692       -2.1015291897        3.3505169886
 H         0.0835344409        1.5620154093        3.9592594317
 H         0.7911331551        2.2703019754        2.4363443219
 H        -0.8236878767        1.6077690726        2.4003394950
 H        -1.8603466010       -2.7826862885       -0.2083523231
 H        -0.6637574585       -1.8063597130       -1.0108221722
 H        -0.5526266389       -6.4201667075       -2.4314781887
 H        -1.7659197013       -7.3796764932       -1.4987729210
 H         0.4274199889       -3.7144237294       -2.3955723523
 H         1.2823928168       -5.1736525877       -2.3442062917
 H         1.9701143572       -3.8870761432       -1.3917392630
 H         2.1001792233       -5.6388988502        0.3212353142
 H         0.7750581255       -5.6266523063        1.4713145172
 H         0.8664163326       -6.7820695045        0.1811984180
 H        -3.4814458837       -5.8233355665       -1.8942362088
 H        -3.0129164943       -6.9461802198       -3.1494653629
 H        -4.1696924749       -1.7763063408       -3.4858506854
 H        -5.4601843069       -1.9736290310       -4.5906571826
 H        -2.7762258445       -2.5494618071       -5.3822023252
 H        -4.1831520762       -3.0399960884       -6.2489687194
 H        -2.7510711081       -4.0657916792       -6.2688203605
 H        -5.2685127398       -5.8154635693       -4.5406281910
 H        -4.9425789841       -5.1994441968       -6.2173712340
 H        -3.8829935497       -6.3356472495       -5.5120544511
 H        -6.4112023353       -0.6609944018       -2.7937554975
 H        -6.9147190748       -2.2879548162       -2.3665836058
 H        -5.0910363923        1.2851402216        0.0827041388
 H        -6.6832026411        1.0937090979        0.7836575224
 H        -7.9868186087       -0.3693986648       -0.3868531939
 H        -8.0678976286       -1.4453600116        0.9562282438
 H        -8.1691227704       -2.0930902347       -0.6354953437
 H        -4.8909352712       -3.1276292115        0.6237226377
 H        -6.5112683362       -3.3220002918        1.4100437499
 H        -6.2973759935       -3.6358909343       -0.2525131082
 H        -4.1591253577        1.5593841004        2.5975936085
 H        -5.9109346437        1.3760287694        3.0953640465
 H        -4.0484485579        4.1106747843        0.3066737356
 H        -3.5232438593        5.7226758808        0.6581572107
 H        -6.0549766791        5.5690243157        3.5652459921
 H        -4.8480524022        6.2430232276        2.4169711878
 H        -4.2508143118        6.1070693325        3.9082393800
 H        -3.4631203440        3.8855073957        5.0541086074
 H        -4.9835166061        2.9533761426        4.9140504742
 H        -3.5153196672        2.3695673300        4.1284020767
 H        -1.5256038707        5.5650971278       -0.3248592986
 H        -1.0824072080        4.1105535780        0.3969710866
 H         0.6155283362        0.7048935544       -2.2875214390
 H        -0.8631961748        1.1002965353       -1.4175065441
 H        -0.9007442748        1.2657202824       -3.0869896236
 H        -1.5010369282        4.5446976858       -4.6321362459
 H        -2.2296517903        3.0621690691       -4.0500554106
 H        -0.5609409054        3.0724108049       -4.5778077876
 H        -0.8101583510        6.1285098116       -2.7808740397
 H         0.2425419250        5.3021382480       -1.4883788022
 H         0.5456582211        5.3456477416       -3.2914317917
 Na        2.3402705613        1.5818276301       -0.1525971442
