155

 C         5.3601677151        0.4238558263       -2.9059267161
 C         4.3683034784        1.2287365521       -2.1226671822
 C         4.8257821105        2.6331303658       -1.5194783757
 C         4.7744442028        2.5660160348        0.0565956871
 C         6.0189656438        2.5151603364        0.9458471195
 C         6.2467164436        3.1132646043       -1.9745058875
 C         3.6584555934        3.6825900805       -2.0366612992
 O         3.1906327331        0.9555229499       -2.1009089567
 O         3.6409849711        2.5925258258        0.5493509006
 C         5.7248249254        1.6452313564        2.1482037494
 C         6.5686745208        0.3239125256        2.2657877181
 C         6.5341981308       -0.4223071516        3.6484266433
 C         5.0130060513       -0.6838374205        3.9284927952
 C         4.3877712310       -1.9379833978        3.4410368260
 O         7.2480090311       -0.0045636442        1.3106261610
 O         4.3531052323        0.0795254995        4.6146174185
 C         7.3359142314       -1.6841425636        3.6211490842
 C         6.9009740533        0.5682396262        4.8490923312
 C         2.8526912790       -1.9430772012        3.5239162985
 C         2.2714732356       -0.8083724272        2.7815552695
 C         0.9455611142       -0.0889477093        3.2867380762
 C        -0.0605640464       -0.5093697676        2.0427148220
 C        -1.0231473525       -1.6996488508        2.3443404509
 C         0.4310084303       -0.4885696190        4.7716516427
 C         1.0774719886        1.4726116918        3.3311152030
 O         2.7001172113       -0.5453143744        1.6079484702
 O        -0.0499670215        0.0364383094        0.9808334549
 C        -1.0987499517       -2.4059169985        0.9530607952
 C         0.2485724618       -3.2740905746        0.9259962389
 C         0.8897785572       -3.5914812013       -0.4313419421
 C        -0.2434175896       -4.4446735483       -1.2291600545
 C         0.3414062549       -5.3253870892       -2.3256305987
 O         0.7403337350       -3.6682653879        1.9858007478
 O        -1.5053096141       -4.3673518390       -1.0309664185
 C         1.1277865958       -2.3981408996       -1.3196939309
 C         2.2958307296       -4.2395275124       -0.2049439029
 C        -0.7052867013       -5.8051930089       -3.4005423459
 C        -1.5631819545       -4.6417943721       -3.8308639167
 C        -2.9586173440       -4.8234639428       -4.6740294177
 C        -4.0843038352       -4.2770933425       -3.7638339041
 C        -4.2869821764       -2.7385281247       -3.7631964345
 C        -2.7708986705       -4.0142054542       -6.1064086636
 C        -3.2582723733       -6.2865441053       -4.9792776601
 O        -1.1061247488       -3.5333376257       -3.6356835655
 O        -4.6289791276       -5.0060804885       -2.9701616747
 C        -5.4713910773       -2.2090566813       -2.8572936954
 C        -4.9532761839       -1.3944382312       -1.5981008882
 C        -5.7174962222       -1.7328561955       -0.2518694691
 C        -5.1746804093       -0.8483636786        0.9255663442
 C        -5.6724183542        0.6144955713        0.9135313512
 O        -4.1527080646       -0.4889486515       -1.7703756262
 O        -4.6681952560       -1.3085786247        1.9329751517
 C        -7.1791313168       -1.4376656873       -0.4520716098
 C        -5.5750749856       -3.2338058006        0.0550348838
 C        -4.7600483323        1.4160362763        1.9838776565
 C        -5.4564719566        2.8462859273        2.0610733447
 C        -4.5778053095        4.0430381929        2.5608606262
 C        -3.2802710646        4.0488054203        1.7916572432
 C        -3.0148123826        5.1500247901        0.7025410973
 C        -5.3893520970        5.3527246276        2.3310234276
 C        -4.2492796834        3.7620237498        4.0095137447
 O        -6.6096800622        2.9502846347        1.8436407107
 O        -2.5079325372        3.1529288207        2.0300705751
 C        -1.7916505034        4.8137670624       -0.1631513415
 C        -2.1000045522        4.5127210627       -1.6134343806
 C        -0.9788880042        4.1250232056       -2.6352816846
 C        -0.4728855814        2.7041875479       -1.9524811002
 C        -1.3228264841        1.4075870898       -2.0344887151
 O        -3.1577404765        4.7799630005       -2.1395031124
 O         0.5212999185        2.7444355825       -1.2732800554
 C        -1.5675978691        3.8243643287       -4.0425479574
 C         0.1796231408        5.0936624519       -2.7774548844
 H         6.0327200550        0.9713561858       -3.4981404221
 H         6.0760476258       -0.1629657841       -2.2874637301
 H         4.8764031633       -0.4657524641       -3.4807833074
 H         6.7913303186        2.0529445847        0.2986630083
 H         6.1672618056        3.5526781205        1.1978032344
 H         7.1009481933        2.5361878669       -1.5499082488
 H         6.4898719571        4.1887575652       -1.7504231388
 H         6.3224383243        2.9736494370       -3.0387189333
 H         2.6521104940        3.3590205920       -1.7777426608
 H         3.8791631570        4.5884886373       -1.6023093778
 H         3.6484305890        3.5468244626       -3.1308422407
 H         5.9441991683        2.3726666546        2.9899523970
 H         4.5834240064        1.4276236210        2.1877116764
 H         4.6262694271       -1.8670387249        2.3783029899
 H         4.7301783653       -2.8455711694        3.8707356889
 H         7.3494398886       -2.2452012138        4.5365955703
 H         8.4218758116       -1.4939960870        3.3088093422
 H         6.9252053531       -2.2913323898        2.8360588703
 H         6.3008835796        1.4095879762        4.9669046123
 H         6.7761673690       -0.0826418751        5.6867289842
 H         7.8701721018        0.9299344347        4.7935721584
 H         2.5751179615       -1.9777262282        4.6064314577
 H         2.4028371743       -2.8737853625        3.1078128727
 H        -0.8133250767       -2.3901745016        3.0900603995
 H        -2.0210352993       -1.2508969617        2.6404752331
 H        -0.6262243274       -0.1972804195        4.8049871971
 H         1.1359502654       -0.1440667612        5.4455030629
 H         0.4961563298       -1.5546144439        4.7219252394
 H         1.6799141876        1.7675051164        4.1256884623
 H         1.3234897697        1.9569718074        2.3813797209
 H         0.0466366423        1.9038222319        3.4856099995
 H        -1.9664697548       -3.1302641651        0.8082243533
 H        -0.9594292182       -1.6771181584        0.0818732461
 H         1.0924384039       -4.7233919933       -2.8390353821
 H         0.8474263780       -6.1831601236       -1.8906114935
 H         0.2357733276       -2.0958016840       -1.8802448125
 H         1.7024070875       -2.6261617779       -2.2175529952
 H         1.4891872068       -1.5475964504       -0.7226619591
 H         2.9066375534       -4.1702921363       -1.1001009838
 H         2.8080792662       -3.7260128865        0.6150735654
 H         2.2467508001       -5.3802066261        0.0778311163
 H        -1.3178879161       -6.5484447593       -2.8995173661
 H        -0.1420058440       -6.3533527422       -4.2136107613
 H        -3.2889814484       -2.3660563042       -3.4986638641
 H        -4.5502714897       -2.4806875403       -4.8171701982
 H        -2.5053318923       -2.9338630205       -5.9599738530
 H        -3.6773280433       -4.1536104970       -6.6631677709
 H        -1.8123697200       -4.5202771377       -6.3643314607
 H        -2.8838347187       -6.7239280759       -4.0579582107
 H        -4.2720221763       -6.4975599780       -5.2442761407
 H        -2.6919277758       -6.6651205674       -5.7597879125
 H        -6.1187881014       -1.5202457717       -3.3912787828
 H        -6.1868695141       -3.0856354522       -2.7204051801
 H        -5.8001142758        1.0303502680       -0.0867326277
 H        -6.6719978243        0.6468237387        1.2641778339
 H        -7.2475002808       -0.3851899066       -0.9484283256
 H        -7.4768141766       -1.2650590139        0.5914167964
 H        -7.6581376883       -2.1154357835       -1.0203453843
 H        -4.5965964879       -3.5466909165       -0.2334896009
 H        -5.6709582088       -3.4357487979        1.1473107452
 H        -6.3950115568       -3.7229742917       -0.4583221805
 H        -3.6483517888        1.4175742258        1.7141896310
 H        -4.8324462841        0.9339154281        2.9590049920
 H        -3.8606932309        5.2044584102        0.0640226413
 H        -2.9932535976        6.1385695218        1.1762205422
 H        -6.0637811930        5.3495298888        3.1751612523
 H        -6.1266855360        5.3964149128        1.5901461743
 H        -4.6717002426        6.1087702671        2.1850613915
 H        -3.7319673354        4.6090852236        4.4787294779
 H        -5.1766442682        3.6353127268        4.5577087388
 H        -3.7001455344        2.8290437373        4.0045277754
 H        -1.0850384125        5.7131389265        0.0054950423
 H        -1.1515294283        4.0318649623        0.2399699908
 H        -1.0594838612        1.0005872985       -3.0292010962
 H        -1.0136421327        0.6184745627       -1.4325834217
 H        -2.4261574930        1.4687373245       -1.8878504692
 H        -2.2553317283        4.6799595187       -4.2372267755
 H        -2.1293503563        2.8989662343       -4.0679692393
 H        -0.8370310069        3.9006378393       -4.8982439668
 H        -0.2580996690        6.1321122277       -2.9014511337
 H         0.6667884117        5.2288282529       -1.7685048153
 H         0.8654717131        4.9723408953       -3.5851600809
 Na        1.8470207636        1.0469541016       -0.0539576065
