155

 C         5.3008099808        0.3935063499       -2.9627613567
 C         4.4161529124        1.3734746287       -2.0998516194
 C         4.8390952610        2.7984573352       -1.5658791147
 C         4.6937907441        2.5700057090       -0.0001692648
 C         6.0578759521        2.3909801051        0.8251345806
 C         6.2294640489        3.1954676617       -2.1334380444
 C         3.8361015548        3.8919597726       -2.1301657988
 O         3.3142398595        0.9282329430       -1.8211359876
 O         3.6355527421        2.3664728989        0.4786677985
 C         5.8155266390        1.7805182750        2.2051104135
 C         6.5531611486        0.5242894527        2.4074039819
 C         6.5353633125       -0.3498676985        3.8256516561
 C         5.0233202026       -0.7415755706        3.8808368013
 C         4.3819422984       -1.9730957242        3.2073186639
 O         7.2758477229        0.0279429125        1.5366975918
 O         4.1914405051       -0.0603187331        4.4617046719
 C         7.4440496903       -1.6426078032        3.6526118048
 C         7.1471921897        0.5648699951        4.9730393284
 C         2.7866764645       -1.9764522901        3.5691448982
 C         2.1493536821       -0.7484932897        2.8680467278
 C         0.8563728524       -0.2401619228        3.3549332638
 C        -0.1763514135       -0.5274726583        2.1044799584
 C        -1.3264459004       -1.5318447422        2.2790758810
 C         0.2910299066       -0.8257564243        4.7345051441
 C         1.0121711900        1.3552037046        3.3997756026
 O         2.7608339858       -0.2589184584        1.9491166079
 O        -0.0586643132        0.1731449876        1.0819705101
 C        -1.2296600761       -2.6821750089        1.2690251829
 C         0.2152069773       -3.2581068119        1.0501135202
 C         0.7831395049       -3.4839016849       -0.4292948814
 C        -0.2030078918       -4.4364156129       -1.2683679070
 C         0.4429137377       -5.3034812625       -2.4711327123
 O         0.8894447021       -3.6878988936        1.9462234568
 O        -1.3234560271       -4.4442569781       -1.0053523725
 C         0.8688672185       -1.9615328535       -0.9804051774
 C         2.1677940460       -4.2188736552       -0.3867487391
 C        -0.7289889114       -5.6277622228       -3.4582562622
 C        -1.5066755177       -4.4450890977       -3.9961457917
 C        -2.8042382494       -4.8543811735       -4.7381474986
 C        -3.9162489004       -4.2155582245       -3.8441924010
 C        -4.1177966772       -2.7254450563       -3.7303771985
 C        -2.7894247385       -4.0864497549       -6.0697167128
 C        -3.0689160009       -6.3935468397       -4.9783374677
 O        -1.1620379335       -3.2561786670       -3.8486186042
 O        -4.6778735844       -4.9498518070       -3.2861926720
 C        -5.2387223644       -2.3666592167       -2.8022144543
 C        -4.8728401783       -1.5919121313       -1.5269465988
 C        -5.7601076275       -1.9222890326       -0.2042931522
 C        -5.1883952035       -1.0434910161        0.9865900201
 C        -5.5514146307        0.4678266579        0.9544471393
 O        -3.9908236564       -0.7658848823       -1.5291373598
 O        -4.5100213992       -1.5731814434        1.8409416839
 C        -7.2532387757       -1.4496547966       -0.6081457923
 C        -5.5855248415       -3.4369947110        0.0666379478
 C        -4.7727045753        1.4898884190        1.7215859455
 C        -5.5005119252        2.8392765474        1.8764532051
 C        -4.6298838415        4.1028184933        2.4947347702
 C        -3.1648286242        4.1214282609        1.7823811878
 C        -2.9925709743        5.1491446187        0.6840702622
 C        -5.5314371461        5.3612076022        2.2720971196
 C        -4.4002625540        3.9877177059        4.0865280767
 O        -6.6892910738        2.9793720730        1.5975322807
 O        -2.2518250243        3.3341755763        2.0615653737
 C        -1.7616857918        4.8671584223       -0.1981839251
 C        -2.1763997486        4.5924971521       -1.6618553732
 C        -1.0624755914        4.0600199362       -2.5564790827
 C        -0.5881900252        2.6305523404       -1.9235371175
 C        -1.5169683978        1.4538993587       -2.0330407139
 O        -3.2854588132        4.9373850108       -2.0468786181
 O         0.5428626191        2.5268846306       -1.4596625643
 C        -1.6664612270        3.7756969518       -3.9981589089
 C         0.1120571994        5.0707112577       -2.5516200264
 H         6.0299108220        0.9738241836       -3.5948363679
 H         5.9676015742       -0.2808217120       -2.4878619780
 H         4.7625103141       -0.1975932657       -3.6268135004
 H         6.6444270055        1.6912041688        0.2578937736
 H         6.5082157260        3.3966750987        0.7976392156
 H         6.9581449068        2.4435549621       -2.2315669907
 H         6.7025323940        3.7716574933       -1.4057052018
 H         6.2139118117        3.7512534782       -3.0697089458
 H         2.9013443581        3.6900875050       -1.6110434800
 H         4.2265678822        4.8665222787       -1.6655266918
 H         3.6264683104        3.7195936323       -3.1853266158
 H         6.2338151155        2.5081444466        2.8820219756
 H         4.8261901605        1.6704682652        2.4477893603
 H         4.3722474626       -2.0602167817        2.1185058599
 H         4.6964089684       -2.9219339514        3.6862542749
 H         7.2405900915       -2.3035774839        4.5292263101
 H         8.4761147345       -1.4836427989        3.5493932732
 H         7.2449233771       -2.1972997640        2.6800473943
 H         6.4398505603        1.4170594820        5.3113637407
 H         7.4385372177        0.0240253571        5.8844613627
 H         8.0731735718        1.1079039210        4.5648665071
 H         2.5929135055       -2.1041473128        4.6356038476
 H         2.4580756848       -2.8868459842        3.0904647455
 H        -1.2931243725       -1.9748370006        3.3317515832
 H        -2.3365930959       -1.2102844063        2.1244045154
 H        -0.7104995906       -0.5045984505        4.7885235855
 H         1.0284933957       -0.3995015004        5.4366376491
 H         0.3180096592       -1.9478022292        4.7725287380
 H         1.7779310018        1.5410575480        4.1981066779
 H         1.3475257178        1.6522229842        2.4224074217
 H         0.2106773071        2.0017914879        3.5598262202
 H        -1.8203711534       -3.5132570481        1.6073746558
 H        -1.4787008838       -2.3727906193        0.3217741706
 H         1.3169654012       -4.9511179817       -3.0205099536
 H         0.7098028774       -6.2278130027       -1.9431255769
 H        -0.0251888012       -1.3387011217       -0.8823406322
 H         0.8680957514       -1.9582700027       -2.0692401263
 H         1.6816204230       -1.4451062139       -0.4549390342
 H         2.5029901467       -4.2319276224       -1.4466502047
 H         2.9865898225       -3.7337515451        0.1926496497
 H         2.0758910312       -5.2016423131       -0.0560145001
 H        -1.3953232502       -6.2956375687       -2.8382010142
 H        -0.2523055368       -6.1354533154       -4.2774071352
 H        -3.2069793948       -2.2788288707       -3.3292540993
 H        -4.4070846236       -2.3438328906       -4.6898299444
 H        -2.5891289482       -3.1086380315       -5.8223663262
 H        -3.8067077657       -4.1518946351       -6.5169642492
 H        -1.9738817901       -4.4739327165       -6.5696255608
 H        -3.0968965333       -6.9385292241       -4.0527911608
 H        -3.9330738979       -6.5420766516       -5.6293262427
 H        -2.1739585521       -6.8104699710       -5.5374680903
 H        -5.9822379432       -1.7551275097       -3.3333748832
 H        -5.8284461729       -3.2039764458       -2.6643418283
 H        -5.7565483830        0.7077376957       -0.0860145127
 H        -6.5665340947        0.5946433935        1.4318513979
 H        -7.2092207506       -0.6705629563       -1.2929935074
 H        -7.9340061597       -1.0588156479        0.1573239405
 H        -7.4447780999       -2.3438459439       -1.3110189520
 H        -4.5064873010       -3.6685154004       -0.1217232963
 H        -5.7540292723       -3.7153668419        1.1002682106
 H        -6.2773919246       -3.9622612844       -0.5980644481
 H        -3.8938131809        1.7624816270        1.2042852028
 H        -4.4637565236        1.1844053644        2.7114760753
 H        -3.9579533580        5.0757845435        0.0459127589
 H        -3.0768515247        6.1666175792        1.1352810056
 H        -6.5773332070        5.0840256322        2.4624775198
 H        -5.5764403997        5.5338788347        1.1577889003
 H        -5.0068481542        6.2718147781        2.6418204595
 H        -3.9097005872        4.9024437934        4.3919651286
 H        -5.3674594535        3.8968696312        4.6240083815
 H        -3.7231968164        3.1608445411        4.3131223665
 H        -1.1107245358        5.6706638568       -0.0942766604
 H        -1.1177291732        4.0779949725        0.2350029489
 H        -1.1598333396        0.6171482019       -2.6311440527
 H        -1.7083763708        0.9573452944       -1.0343596714
 H        -2.5127891393        1.7590307506       -2.2787844155
 H        -2.3401371843        4.5917758105       -4.3040375001
 H        -2.2112804376        2.8242589304       -4.0886588853
 H        -0.8567894090        3.7574728381       -4.6538427698
 H        -0.1878938842        6.0823532295       -2.6010313064
 H         0.7631409322        5.0343131509       -1.7042274131
 H         0.7609673178        4.8308777033       -3.4539683374
 Na        1.8355016959        0.9897474350       -0.0314816965
