155

 C         4.7150747391        0.7304977659       -3.1223091442
 C         4.1354188480        1.2570146075       -1.8607183103
 C         4.6610907531        2.6687828595       -1.2417341887
 C         4.8541712562        2.4196484109        0.2825356041
 C         6.3200875559        2.4551939318        0.8176356720
 C         5.9118676092        3.0795533379       -1.9257789993
 C         3.5564169461        3.7016933230       -1.4096726111
 O         3.4969907052        0.4733235705       -1.1391822802
 O         3.8797787613        2.2988451523        1.0337681765
 C         6.4521878296        2.1574487377        2.3381661567
 C         6.7992004372        0.6550945829        2.5252047985
 C         6.5960454816       -0.0457052727        3.8685364542
 C         5.0116020715       -0.4266647457        3.9213575911
 C         4.5185126364       -1.6510271700        3.2871015435
 O         7.2724495688        0.0446964028        1.5770692611
 O         4.2254681519        0.4461817241        4.3199014389
 C         7.5663386399       -1.2209842912        3.8454995301
 C         6.9369056514        0.8813343229        5.0451669071
 C         3.0673451959       -1.7709896567        3.6900359569
 C         2.1980415619       -0.8520645439        2.8540612426
 C         0.8391965823       -0.3485886772        3.4965061556
 C        -0.3447183195       -0.5347539798        2.3941091127
 C        -1.4146445556       -1.5414797501        2.4810840676
 C         0.3340337687       -1.1046805016        4.8354969207
 C         1.0430212434        1.1658200302        3.7008818126
 O         2.4590474880       -0.5514262582        1.7247043062
 O        -0.2990922142        0.1044403219        1.3224988788
 C        -1.3259043535       -2.3521134117        1.1207099102
 C         0.0142736953       -3.0174110027        0.9265518613
 C         0.5902497216       -3.2214955579       -0.6004081496
 C        -0.1153402806       -4.2871754890       -1.3621743466
 C         0.4754803123       -4.6514370794       -2.7549459411
 O         0.7210868718       -3.3552426524        1.8802637632
 O        -1.0787815646       -4.9120380727       -0.8580752618
 C         0.4284504615       -1.8619026958       -1.3931221257
 C         2.1189504757       -3.6422309475       -0.4356347365
 C        -0.6238125253       -5.3126424927       -3.6792237173
 C        -1.2901758986       -4.3274400432       -4.5847892169
 C        -2.6030637586       -4.7039910941       -5.3759312499
 C        -3.7919617259       -4.2745277221       -4.4599715909
 C        -3.7188808974       -2.8429661780       -3.7867755624
 C        -2.6584635991       -3.8464573349       -6.6574467251
 C        -2.6824272166       -6.2239251611       -5.6070537731
 O        -0.8628468644       -3.1993555385       -4.7710099831
 O        -4.7416128283       -4.9899566510       -4.2025179654
 C        -4.8665498857       -2.6839881019       -2.7469584545
 C        -4.4036876823       -2.1848839810       -1.2791906387
 C        -5.4992243076       -2.1428559028       -0.1059444212
 C        -5.3571378369       -0.9568710858        0.9010105369
 C        -5.6248148735        0.4613765777        0.3757785438
 O        -3.2822415579       -1.8121235350       -1.0899173319
 O        -4.7996450386       -1.2569689488        1.9655388186
 C        -6.9310777897       -2.0274226700       -0.6218142985
 C        -5.3457144129       -3.4831493497        0.6683253727
 C        -5.0635805899        1.5347885378        1.4881370373
 C        -5.4947345345        2.9073360507        1.3048756372
 C        -4.8563705645        4.0080653981        2.3686710904
 C        -3.4231565136        4.1927715810        1.7551851969
 C        -3.2222941326        5.3358741399        0.6779285471
 C        -5.7735623980        5.2409694556        2.3923998479
 C        -4.8102851182        3.3870872460        3.8169526262
 O        -6.2301884474        3.3720037384        0.5208795502
 O        -2.5701468003        3.3334444360        1.8374567571
 C        -2.0375794159        5.1635725245       -0.2536107159
 C        -2.4296531485        4.4403108213       -1.5730004716
 C        -1.0977540595        3.6943146865       -2.2815267568
 C        -0.6127547556        2.5217680257       -1.4367818387
 C        -1.5230568918        1.4014031410       -1.0641644662
 O        -3.5092123490        4.4916515410       -2.1034610239
 O         0.4892440337        2.5835481244       -0.9335946311
 C        -1.5305297629        3.3112820667       -3.7332450984
 C        -0.0299255820        4.8151908986       -2.4105151482
 H         4.4456973514        1.3443966265       -3.9855364013
 H         5.7735549650        0.5527243584       -3.2354767596
 H         4.1510611040       -0.2773884142       -3.3505184603
 H         6.9874793633        1.7910387674        0.2425801836
 H         6.7204422476        3.4553967919        0.4488020907
 H         6.7185904418        2.3426609190       -1.7943386337
 H         6.2512153932        4.0861257518       -1.6679464937
 H         5.8500876352        3.1528677776       -3.0385657630
 H         2.9217574584        3.3248573880       -0.6600080406
 H         3.7911912303        4.7273193370       -1.3691557475
 H         3.1492851063        3.6446913069       -2.4305387137
 H         7.2359586731        2.7138646070        2.9685522951
 H         5.5179625544        2.2407746050        2.7668050872
 H         4.5404892312       -1.4648964155        2.2236890519
 H         5.0205345283       -2.5785515045        3.4206183321
 H         7.3304190469       -1.9885235134        4.5374445750
 H         8.5035477045       -0.8446470433        4.2446100087
 H         7.6463228946       -1.6759141492        2.8704479700
 H         6.2466215690        1.6340666343        5.3038618020
 H         7.0494043267        0.2931759360        5.9210157527
 H         7.8922857224        1.2901785437        4.9128996646
 H         2.9201263974       -1.6497649659        4.8127025430
 H         2.8119204927       -2.7934427548        3.3702066498
 H        -1.2562256053       -2.1693995723        3.3178943893
 H        -2.4666453532       -1.1726935173        2.5220119910
 H        -0.6506277226       -0.7381126802        5.0522977289
 H         0.8818871910       -0.8287554437        5.7111379524
 H         0.4690646630       -2.2139524626        4.7647224563
 H         1.9422453896        1.3390439628        4.2330246571
 H         1.3286489038        1.6747538757        2.7668218874
 H         0.2541914827        1.7169810033        4.2530746092
 H        -1.9686462347       -3.2569670310        1.2428131195
 H        -1.6742918807       -1.9274425170        0.1881739022
 H         0.9997398331       -3.8712374255       -3.2734934462
 H         1.2737769116       -5.3604431486       -2.5117472760
 H        -0.5961699616       -1.4888063499       -1.3201057931
 H         0.7657036149       -1.9001142659       -2.4079913207
 H         1.1095446478       -1.1216339256       -0.9820841842
 H         2.4786713727       -3.9380153133       -1.3898885155
 H         2.7349336258       -2.7822823014       -0.1049754045
 H         2.2421281300       -4.5178261367        0.2904205316
 H        -1.4376497738       -5.7633462406       -3.0350325215
 H        -0.0612924010       -6.0031658054       -4.2338469500
 H        -2.7561635051       -2.8127727171       -3.2094937243
 H        -3.7347785942       -2.0901429389       -4.6057473076
 H        -2.3384692912       -2.8308491700       -6.2751571851
 H        -3.6218407680       -3.9582385841       -7.1826334095
 H        -1.8974856896       -4.2394624348       -7.4138972031
 H        -3.1705858340       -6.8110769120       -4.7941189298
 H        -3.3462779396       -6.4391282402       -6.4276998600
 H        -1.7121883119       -6.5795119944       -5.8478299979
 H        -5.5702935628       -1.8304264062       -3.0551175794
 H        -5.4731496977       -3.5637235404       -2.7790280960
 H        -5.2215536808        0.7037305556       -0.5921371376
 H        -6.7113907915        0.3945458145        0.3993790335
 H        -7.1941529109       -0.9945767877       -1.1225176107
 H        -7.6733396725       -2.3537328545        0.1163493092
 H        -7.1519318998       -2.7475357248       -1.3155021172
 H        -4.3017383339       -3.7014228460        0.6881707510
 H        -5.8222557282       -3.3477932541        1.6508547236
 H        -5.7585106147       -4.3214667930        0.1954055928
 H        -3.9427512628        1.6253672718        1.4604325483
 H        -5.2656124850        1.1593896856        2.4620729073
 H        -4.1287361625        5.3461040678        0.0454109642
 H        -3.1037075288        6.2786800726        1.1497464195
 H        -6.8130680946        5.0424333911        2.6894304403
 H        -5.7263458160        5.6243750194        1.4334055747
 H        -5.4939589603        5.8965226513        3.1655405493
 H        -4.3989289502        4.0638329742        4.5520118811
 H        -5.9091275146        3.2045456144        4.0919161601
 H        -4.3149392760        2.4144915421        3.7985074864
 H        -1.6022023833        6.1158472824       -0.5098610810
 H        -1.1804263633        4.5226985347        0.1364696863
 H        -2.2233428539        0.9396012260       -1.7766794613
 H        -0.8951897360        0.6797206592       -0.6858960238
 H        -2.2114176171        1.6558185978       -0.2341276238
 H        -2.2088621243        4.1454154682       -4.1164268453
 H        -2.0329123581        2.3331027961       -3.6866465783
 H        -0.6314125214        3.2621206883       -4.3318769354
 H        -0.2859143099        5.6069668778       -3.0970370436
 H         0.2832160006        5.2773549524       -1.4772502205
 H         0.9216303069        4.4699993220       -2.8894851498
 Na        1.6582846220        1.0076935608        0.3157020680
