155

 C         4.7997699764       -0.0580834359       -1.8965787020
 C         4.0026464394        1.0136053012       -1.1719088105
 C         4.4554732643        2.4809514336       -0.9257561619
 C         4.7113773485        2.7384768138        0.6352740992
 C         6.1375930804        3.0032136060        1.0581707687
 C         5.7401259613        2.8982862679       -1.7387995083
 C         3.1512544522        3.3079237269       -1.3779284194
 O         2.9782411636        0.5957503432       -0.6815194482
 O         3.7017003180        2.7294041993        1.3773182739
 C         6.3326674244        2.5385827783        2.5406401625
 C         6.4866877603        0.9386105975        2.6286401713
 C         6.9393274665        0.3585492388        3.9482984430
 C         5.6026723791       -0.4508650955        4.5459107968
 C         4.8050423366       -1.4507801195        3.6445751284
 O         6.2019833758        0.2460100302        1.6477145999
 O         5.3315340635       -0.2680375393        5.7063092215
 C         7.9734866758       -0.7261282592        3.8523973055
 C         7.4727116632        1.5036082721        4.9573623120
 C         3.4451610735       -1.6748069109        4.2464163359
 C         2.4947765009       -0.6208940335        3.5830767928
 C         0.8445088237       -0.6760782270        3.9237884346
 C         0.3228275768       -1.2375281236        2.4978980592
 C        -0.4936789700       -2.5873692873        2.3398624512
 C         0.5140391591       -1.7635187265        5.0208214439
 C         0.1987448794        0.7087308905        4.2402071190
 O         2.8539655315        0.2654831538        2.8700376586
 O         0.3971988365       -0.5758400888        1.5036250864
 C        -0.6832801487       -3.1073393772        0.8881070434
 C         0.7227086142       -3.1983411119        0.2835381914
 C         0.8750932083       -3.2436136889       -1.2858120283
 C        -0.2915007591       -4.2452803018       -1.7713140324
 C         0.0954784624       -5.5438031930       -2.4361290849
 O         1.6710083596       -2.9890119831        1.0350949379
 O        -1.4512325535       -4.0816492070       -1.5405565985
 C         0.8061559645       -1.7937796208       -1.8273432909
 C         2.3093531206       -3.6720332860       -1.5549571043
 C        -0.9111755608       -5.6430401594       -3.5844069745
 C        -0.9501329225       -4.3419722745       -4.4005565581
 C        -1.9256066700       -4.1234533145       -5.5535979509
 C        -3.3537077260       -4.0867505780       -4.7682954546
 C        -3.6923907602       -2.7397925261       -4.0253437574
 C        -1.6272372053       -2.8157161337       -6.3374993967
 C        -2.0214803463       -5.3674726694       -6.4778748525
 O        -0.2213189165       -3.3932552008       -4.1359144155
 O        -3.8978364170       -5.1454288417       -4.5280246498
 C        -4.5931293091       -3.0304433221       -2.8710109527
 C        -4.9130770929       -1.9056519254       -1.8765872192
 C        -5.5851542943       -2.3231144787       -0.5101595345
 C        -5.1221816681       -1.1645327017        0.4117944950
 C        -5.9681697108        0.0834778926        0.4551131390
 O        -4.5759202679       -0.7725404680       -2.0880462056
 O        -4.1118941261       -1.3208778001        1.1056507361
 C        -7.1195782934       -2.4104854995       -0.7981519488
 C        -5.1722834787       -3.6011010396        0.1964321075
 C        -5.3087099125        1.2963196478        0.8686639263
 C        -6.1801427904        2.5140053229        0.9149704959
 C        -5.5587356217        3.7676977271        1.7879090746
 C        -4.3155727829        4.3266125273        1.1731241789
 C        -4.5544986862        4.9842128164       -0.1764840001
 C        -6.6585529851        4.8139532476        1.8767505508
 C        -5.1391739222        3.1709735796        3.1754838548
 O        -7.2383388904        2.5822845365        0.3988613473
 O        -3.2094248748        4.1420026986        1.6159313997
 C        -3.2485417750        5.4215089242       -0.8734940512
 C        -2.6845979129        4.2344442191       -1.7131742450
 C        -1.1066632306        3.9636960560       -1.9235144439
 C        -0.6027573302        2.9505453894       -0.8928167755
 C        -1.4017296344        1.6178830708       -0.8037446526
 O        -3.4382271228        3.4769170149       -2.2449970964
 O         0.3395187732        3.1558464505       -0.0787361525
 C        -1.0861603665        3.3628209243       -3.3269009383
 C        -0.2835665624        5.2004015536       -1.8598309730
 H         5.2817289230        0.3581700481       -2.8026704316
 H         5.6336023268       -0.4983362561       -1.3873793596
 H         4.1112781194       -0.8989964182       -2.0456938990
 H         6.7448479336        2.3644111047        0.4530072046
 H         6.4888152976        4.0553818609        0.9623371896
 H         6.6272037940        2.2938591677       -1.5018334777
 H         5.8121918783        3.9915041186       -1.5170089427
 H         5.5281454887        2.8745379053       -2.7949695389
 H         2.2471744423        3.1956392457       -0.8224946694
 H         3.5408272145        4.3844015015       -1.4717533415
 H         3.1945876839        3.1804934789       -2.4506384016
 H         7.2226190874        2.9140698755        2.9985443662
 H         5.3455496406        2.6773261498        3.1786310374
 H         4.7365783394       -0.9191498113        2.6620646421
 H         5.3969556757       -2.3563832299        3.5751013780
 H         8.4857122800       -0.8872215263        4.7934546182
 H         8.7789339099       -0.4231613872        3.1823481521
 H         7.5192419243       -1.6472794118        3.5283815037
 H         6.7200291943        2.2345263860        5.1838900916
 H         7.7060353312        1.1145646970        5.8807073856
 H         8.3793583637        1.9121752277        4.5946434746
 H         3.4899852830       -1.5392681846        5.3162648781
 H         2.9308344026       -2.6140753666        4.1517060492
 H        -0.0480276277       -3.4200063711        2.8864699810
 H        -1.4746169132       -2.2630491383        2.7782231530
 H        -0.4719700269       -1.5750103860        5.4220563955
 H         1.2152868982       -1.7590341470        5.8722168471
 H         0.7237330286       -2.7562879114        4.7273402840
 H         0.5760774553        1.1239994365        5.1996091725
 H         0.3063425637        1.5418417788        3.5973982779
 H        -0.8364892409        0.5729593199        4.2546609544
 H        -1.0393944460       -4.1142134619        0.9809111270
 H        -1.2626697872       -2.4482314929        0.1910719167
 H         1.0987708489       -5.5767005684       -2.8439619739
 H        -0.2173908283       -6.3081372886       -1.7268816071
 H        -0.2005293869       -1.5241403854       -1.7960816937
 H         1.3845698473       -1.7961129696       -2.7502053141
 H         1.2661084844       -1.0882342954       -1.1773531168
 H         2.4607934859       -3.9393918894       -2.6764062276
 H         2.9934892162       -2.8684009527       -1.2183809545
 H         2.5213450281       -4.5995259814       -1.0503240601
 H        -1.9554503116       -5.7332710279       -3.2165301503
 H        -0.8488991126       -6.5089861290       -4.2272734226
 H        -2.7703063114       -2.3223310867       -3.6873361990
 H        -4.1930375830       -2.1154742394       -4.7444853874
 H        -1.4739956425       -2.0043460707       -5.6970742935
 H        -2.4492337128       -2.6343887317       -7.1320870441
 H        -0.7959136054       -2.7963614188       -6.9974127956
 H        -2.4972509495       -6.1886070287       -5.9742728264
 H        -2.6776758210       -5.2474862805       -7.3744445226
 H        -1.0218676109       -5.6881450806       -6.7993986537
 H        -5.4919748915       -3.4167318031       -3.3006472566
 H        -4.2847122054       -3.9546106079       -2.3911205696
 H        -6.4679633029        0.1909243189       -0.4593088027
 H        -6.8155877616       -0.1884019463        1.1242347523
 H        -7.5485493219       -1.5181966395       -1.2092300447
 H        -7.6082166187       -2.7468859552        0.1413259971
 H        -7.3451646669       -3.2549358533       -1.3393460244
 H        -4.1737819334       -3.8555454035       -0.0031891470
 H        -5.5041755325       -3.6662195950        1.2091895463
 H        -5.5758745485       -4.4343750501       -0.3824571323
 H        -4.5907554572        1.5929473678        0.1092604917
 H        -4.5984648161        1.1614833597        1.7667417332
 H        -5.3255365312        4.3696694732       -0.7580636538
 H        -5.1323180010        5.9469255216        0.0014480659
 H        -7.4920117455        4.6327783705        2.4642763162
 H        -7.0770750548        4.9593954845        0.8617181990
 H        -6.2973129441        5.6660426450        2.4407701801
 H        -5.0399342114        4.0207974292        3.8755427886
 H        -5.8169979614        2.5207812253        3.6502872543
 H        -4.2010263310        2.6038243644        3.0630945019
 H        -3.4147309967        6.2207401938       -1.5806229160
 H        -2.4281923574        5.7257534115       -0.2349149269
 H        -1.7400667064        1.3812205824        0.1622334737
 H        -2.3180960302        1.5317144128       -1.4566230115
 H        -0.7422620427        0.7756490977       -1.0855447088
 H        -1.6131682834        4.0285800968       -3.9656364182
 H        -1.6349974901        2.4390495916       -3.1196471527
 H        -0.0001118914        3.2106978023       -3.5857454434
 H        -0.7227683925        6.0313990728       -2.4723886216
 H        -0.1190838167        5.5223309125       -0.8103602097
 H         0.6511361486        5.1149557247       -2.3341460568
 Na        1.5867305627        1.4885827565        1.1459275009
