155

 C         5.2015017003       -0.5955681430       -1.1018158379
 C         4.4049314147        0.5185764145       -0.3659986435
 C         4.7870453854        2.0692177730       -0.6026381948
 C         4.6595525083        2.9053335611        0.7743131294
 C         5.6873599899        3.7145858912        1.5311259989
 C         6.1404674914        2.3317373348       -1.3603476875
 C         3.7044966555        2.6495870562       -1.6795766378
 O         3.3827883336        0.2853261320        0.2603273704
 O         3.5293373839        3.0080031623        1.1939885145
 C         5.8999579848        2.9535256659        2.8482142151
 C         6.4018983674        1.5959718680        2.6589947763
 C         6.8655000385        0.7353256669        3.8243690155
 C         5.5558049559        0.2434190458        4.5358098878
 C         4.9662489027       -1.1165493644        3.8679064939
 O         6.1997410992        0.9604257838        1.6098340542
 O         4.9964936134        0.9999247674        5.3255128184
 C         7.6973943873       -0.5252415935        3.4540961386
 C         7.6292891796        1.5911612931        4.7774470578
 C         3.4511744393       -1.4128124063        4.1439400105
 C         2.4552249532       -0.3267476192        3.8568328504
 C         0.9321727597       -0.6134974403        4.2008663459
 C         0.4394500918       -1.2334051345        2.6795286263
 C        -0.3174041620       -2.5639563121        2.6358764176
 C         0.7821199930       -1.5271435547        5.4630494541
 C         0.0448939967        0.6645020594        4.4292965639
 O         2.7985093225        0.6070633273        3.1753806193
 O         0.5436794582       -0.5704085938        1.6819015329
 C        -0.5441481206       -3.1153146465        1.1527334383
 C         0.7324456034       -3.7858969316        0.5873481669
 C         1.1937382364       -3.7801739317       -0.9235809247
 C         0.1848559060       -4.4149681528       -1.9024753288
 C         0.6782390657       -4.7981390135       -3.2920552965
 O         1.5851307004       -4.2190009388        1.3713825926
 O        -0.9788504974       -4.4513715084       -1.6282016981
 C         1.2471064764       -2.3129116696       -1.3649485499
 C         2.6016875088       -4.4178069468       -0.9383345881
 C        -0.5578200818       -4.9990571454       -4.2003026314
 C        -0.7629894974       -3.7481333539       -5.1084929767
 C        -1.9521530739       -3.9428344850       -6.1590434493
 C        -3.2450611266       -4.1337197736       -5.2798362608
 C        -3.6793118414       -2.8817802217       -4.5821507869
 C        -2.0368956012       -2.7705191669       -7.0987964242
 C        -1.6673368490       -5.2841770022       -6.9737732678
 O        -0.1138526018       -2.7543155332       -4.9805048138
 O        -3.8199425889       -5.1954325200       -5.1811486406
 C        -4.5225029910       -3.2738019772       -3.3903429972
 C        -5.0880603122       -2.1343286821       -2.4679522415
 C        -5.2253620668       -2.4167296913       -0.9740735154
 C        -4.7038880881       -1.1699127122       -0.2170268313
 C        -5.6947250480       -0.0498743630        0.0026019989
 O        -5.2785790594       -1.0533911177       -2.9266170609
 O        -3.5215854166       -1.0577652553        0.1078300660
 C        -6.8613294723       -2.5604084276       -0.8237235641
 C        -4.4685578267       -3.6911641727       -0.5937649484
 C        -5.3830957708        1.2029970712        0.7549165319
 C        -6.6860375543        2.1428767155        0.7912782538
 C        -6.4189711413        3.6036494864        1.4744452534
 C        -5.1176891629        4.2222436411        0.9239968529
 C        -5.0796557391        5.0453526399       -0.4592398271
 C        -7.6245364019        4.5526032793        1.1746509415
 C        -6.3130265816        3.5863510297        3.1001328830
 O        -7.8218497516        1.7883147744        0.4593141917
 O        -4.1005713686        4.1619573605        1.5998528934
 C        -3.6026866387        5.2398403921       -0.8193565560
 C        -2.8164987075        3.9137562389       -0.9236319901
 C        -1.2632728683        4.0955829560       -1.1145211181
 C        -0.5357124508        2.8493829269       -0.4254488951
 C        -0.8702680014        1.4446694963       -0.9191582953
 O        -3.2489135425        2.7504541601       -0.9279448580
 O         0.1008181638        3.0330391885        0.6359325505
 C        -1.1134476107        4.0965795959       -2.6454768690
 C        -0.6506437339        5.4378245732       -0.5541341459
 H         5.0508855975       -1.5580031490       -0.5069819954
 H         4.9750327842       -0.6926379093       -2.1556840278
 H         6.3536490595       -0.5601080220       -0.9342122576
 H         6.6453183931        3.8798685395        1.1287583137
 H         5.3228714662        4.7424523844        1.7234360632
 H         6.8795119303        1.7627913585       -0.8223823417
 H         6.4611715303        3.3639269173       -1.3745085132
 H         6.2361452614        1.9801103942       -2.3427485011
 H         2.7413888376        2.6003283580       -1.3025663112
 H         4.0072749948        3.6890585583       -1.9396180948
 H         3.7899719704        2.0696600322       -2.5598589722
 H         6.6156987325        3.3797899222        3.5920187523
 H         4.9280419174        3.0341732424        3.4630867858
 H         5.2897665169       -1.1580599026        2.8522819035
 H         5.4210848464       -2.0323380639        4.3035296915
 H         7.9469820142       -1.1037828744        4.3302334299
 H         8.7142418312       -0.1479283570        3.1587039674
 H         7.2075672472       -1.0553193650        2.6782814151
 H         6.9417839983        2.2990158195        5.3626877444
 H         8.0434006107        0.9724092487        5.5738998029
 H         8.5226008356        1.9296353667        4.1813941477
 H         3.2258097071       -1.7727297566        5.1781112103
 H         3.0294618255       -2.2223146749        3.5456528866
 H         0.0729969695       -3.2706050984        3.3208476018
 H        -1.3094417657       -2.1984709188        3.1679265188
 H        -0.2837709326       -1.5686968481        5.4308394208
 H         0.9105777212       -0.9510932681        6.3870750618
 H         1.4031796627       -2.3855345821        5.5608058724
 H         0.3508666453        1.2813598345        5.3754552527
 H        -0.0200726282        1.3299118230        3.5518060860
 H        -0.9513626704        0.2344523467        4.5038837605
 H        -1.3385906136       -3.8305840473        1.1916877942
 H        -0.8996966377       -2.4065564959        0.3495104584
 H         1.2743754438       -3.9714499461       -3.6212754578
 H         1.5115810998       -5.4831872665       -3.4339941195
 H         0.2803220932       -1.8745746859       -1.1757575753
 H         1.6085437335       -2.3644413119       -2.4322480368
 H         1.9256974979       -1.7647070540       -0.7494339613
 H         3.1056974837       -4.3251725968       -1.9192890642
 H         3.2560699597       -3.9749270240       -0.2143181784
 H         2.5348041520       -5.4170171528       -0.6434412673
 H        -1.5059342469       -4.9360608699       -3.6357137102
 H        -0.4355087302       -5.8398876994       -4.8298572462
 H        -2.8164720306       -2.3684107139       -4.1478962196
 H        -4.0909478509       -2.1722012306       -5.2332602545
 H        -2.0104579030       -1.7792344821       -6.6221611463
 H        -2.9160753464       -2.7621202981       -7.8845554122
 H        -1.1929936622       -2.8300828373       -7.7922657875
 H        -1.5931279980       -5.0317036966       -8.0358897712
 H        -0.6716890387       -5.6398931232       -6.6975185223
 H        -2.3804499194       -6.0154740352       -6.6599883597
 H        -5.4774047531       -3.7163570798       -3.8185450742
 H        -3.9416804604       -4.0086602432       -2.9294996401
 H        -5.9060931693        0.1421549088       -1.0213819896
 H        -6.5854677469       -0.4646183874        0.4691891433
 H        -7.2687892914       -1.5680713606       -1.1147876843
 H        -7.0970992741       -2.8908493038        0.2317692498
 H        -7.1928469668       -3.2969688747       -1.4091147448
 H        -3.4224148243       -3.5511174524       -0.9281757634
 H        -4.3329966765       -3.7440510019        0.5363747536
 H        -4.9237585643       -4.5918677237       -1.0635010103
 H        -4.6543290478        1.8208290953        0.1860180125
 H        -5.1437881369        0.9024677790        1.7835258156
 H        -5.5036220469        4.5016530140       -1.3786570128
 H        -5.6269113676        5.9443311720       -0.1101028910
 H        -8.4339653313        4.1988319879        1.7522178047
 H        -7.8894076245        4.5466690790        0.0730574649
 H        -7.3503046130        5.5640279589        1.5131733275
 H        -5.9712603375        4.5742979507        3.4488474338
 H        -7.2998452406        3.4907899074        3.5413018213
 H        -5.6382341479        2.8210782830        3.5427786827
 H        -3.5542282443        5.6170775553       -1.8086777705
 H        -3.1065854590        6.0235569260       -0.1519355318
 H        -0.1403655599        0.7063238684       -0.7369479774
 H        -1.7896973718        1.0773566707       -0.4915516579
 H        -1.1636990071        1.4461396720       -1.9728191453
 H        -1.4689724365        4.9999463982       -2.9959569087
 H        -1.6860934048        3.2905517199       -3.0084489159
 H        -0.0275941104        4.0539697924       -2.8234143256
 H        -0.7421374900        6.2214649005       -1.3415181049
 H        -1.0405871748        5.7382283925        0.4306680628
 H         0.3921436454        5.2870739893       -0.4852010767
 Na        1.6976326002        1.5407362211        1.5954381809
