155

 C         5.4490653085       -0.3988779960       -1.0358728434
 C         4.4491122664        0.6358129018       -0.4840345708
 C         4.7177158301        2.2732417771       -0.7425243576
 C         4.5673793914        2.9104828479        0.6337209967
 C         5.7934336841        3.4904666544        1.2837730976
 C         6.1122047985        2.3419378369       -1.3418525691
 C         3.5440981322        2.7543821060       -1.6474215272
 O         3.4037780597        0.3395188565        0.0994123934
 O         3.4220524016        2.9076465025        1.1403476698
 C         6.0596841503        2.9462438026        2.7253178169
 C         6.3700540130        1.3810975571        2.6548727207
 C         6.9028454945        0.7296777859        3.9607257839
 C         5.4547733691        0.2957824065        4.6303678687
 C         4.9978859843       -1.1100182732        4.2410008979
 O         6.3182133047        0.7507664282        1.6341907201
 O         4.8209861428        1.0374965114        5.3497734061
 C         7.9034425115       -0.3889868870        3.6324547830
 C         7.5506477449        1.7051761776        4.9416411272
 C         3.4754832655       -1.3943982419        4.5284132475
 C         2.4195259264       -0.4152482644        3.9450155719
 C         0.8856091895       -0.7894199534        4.1648302149
 C         0.5028113772       -1.3909075397        2.7276052453
 C        -0.4916149848       -2.6150471336        2.5480405323
 C         0.5932593869       -1.8059907645        5.3158878196
 C         0.1487520229        0.5192800354        4.2546005160
 O         2.8316974482        0.6235069656        3.5216217818
 O         0.9234397602       -0.8616972120        1.7027645550
 C        -0.5218462719       -3.0635389798        1.1358806756
 C         0.8749200853       -3.6596180908        0.7811725729
 C         1.1906785459       -3.6996030825       -0.7799103778
 C         0.1820415202       -4.3146641049       -1.7525641664
 C         0.6168542993       -4.6866088098       -3.1385572272
 O         1.6484590588       -3.9309731627        1.6547934614
 O        -1.0271633914       -4.5136223398       -1.4136496364
 C         1.5511379377       -2.2266417389       -1.3319383381
 C         2.4865413792       -4.5714013299       -0.9833444407
 C        -0.4003541105       -4.9082001826       -4.2376702297
 C        -0.7502801227       -3.6762409604       -5.2605513001
 C        -1.8421462471       -4.0282790084       -6.2862442624
 C        -3.1236416282       -4.0562168847       -5.3739984132
 C        -3.5649084186       -2.7666035344       -4.5864875646
 C        -2.0435501286       -2.7715337005       -7.2590235428
 C        -1.6656234196       -5.2986668433       -7.1866446838
 O        -0.2720312824       -2.5713420122       -5.0803083911
 O        -3.6731795158       -5.1285404345       -5.2413844084
 C        -4.6790918791       -3.2372393949       -3.5823927918
 C        -4.9917866231       -2.1667761741       -2.5611540706
 C        -5.2437436314       -2.5020154708       -1.0062939110
 C        -4.7470268925       -1.2106498463       -0.2282636931
 C        -5.8337656151       -0.1997825173        0.1366897309
 O        -5.3666959900       -1.0482623021       -2.9268185833
 O        -3.5913741678       -1.0048969152        0.0118046058
 C        -6.7029808560       -2.9356901374       -0.8353934702
 C        -4.4439635413       -3.7481465755       -0.4687836480
 C        -5.3357244271        1.1645079370        0.6837764320
 C        -6.5900639926        2.0832461771        0.6933519239
 C        -6.5382496157        3.5871607330        1.4451740564
 C        -5.2562615313        4.2887716260        0.9660574982
 C        -5.0910411956        4.8556906120       -0.4895150612
 C        -7.8399226764        4.3957273566        1.0286823789
 C        -6.3992000021        3.3288276321        3.0069285882
 O        -7.6541101426        1.8752738932        0.2473607791
 O        -4.3605342315        4.4609021179        1.7403655855
 C        -3.6831510923        5.3394828493       -0.7596754284
 C        -2.8588917541        4.0426005900       -0.7766263240
 C        -1.3116930363        4.1657571012       -1.0731638721
 C        -0.5366277800        2.9642905348       -0.4519545751
 C        -0.8168170807        1.5143031795       -0.8802902291
 O        -3.2935611057        2.9182092232       -0.7005839551
 O         0.1529012287        3.1781576582        0.5116114779
 C        -1.1780166107        4.1907435327       -2.6904656587
 C        -0.7040027353        5.4345266371       -0.4281293446
 H         4.9896410630       -1.3256348108       -1.2011785493
 H         5.7486712870        0.0151887104       -1.9895839646
 H         6.2371868910       -0.6343691321       -0.4565392935
 H         6.7725183180        3.4325835410        0.7601223045
 H         5.7407919428        4.5452555128        1.4100767928
 H         6.8877216063        1.7458306510       -0.8425104614
 H         6.4983103948        3.3590569800       -1.3910820600
 H         6.1170547131        1.9647003493       -2.4030361303
 H         2.6688571785        2.5315513641       -0.9943668043
 H         3.5509079928        3.8249255507       -1.8839707646
 H         3.5578833148        2.2812908998       -2.6845090002
 H         6.7417111645        3.5375262915        3.3575608634
 H         5.1743367640        3.0538459955        3.2873397983
 H         5.3790821491       -1.1735788413        3.1827253180
 H         5.4822155220       -2.0071838762        4.6551872164
 H         8.1179479042       -0.9865372072        4.5280007452
 H         8.8233222589        0.1107772754        3.3699597064
 H         7.5077373568       -0.9972973833        2.7888515963
 H         6.8268660684        2.2973535475        5.3714429430
 H         8.0250025959        1.1652822612        5.7307524577
 H         8.2756885116        2.2160617117        4.4083628851
 H         3.3696675539       -1.1782947525        5.5698787438
 H         3.0977323418       -2.4152550229        4.4457941538
 H        -0.0733161886       -3.4658957311        3.1811740595
 H        -1.4050491469       -2.3777266509        2.9308590116
 H        -0.5295272263       -1.6704974642        5.5622979853
 H         1.2979296865       -1.8493075239        6.1469800795
 H         0.8642568188       -2.7415560549        4.8363726850
 H         0.1364267695        0.7763162217        5.2427302223
 H         0.6171233622        1.3089115875        3.7038694790
 H        -0.8318803668        0.4022581661        3.7669084833
 H        -1.4727739465       -3.6758339282        0.9723740284
 H        -0.6741681199       -2.2682479445        0.4177377754
 H         1.5649442834       -4.1737375859       -3.4883620401
 H         1.2104878522       -5.6107385169       -3.0140516585
 H         0.7721116645       -1.5650035374       -1.0129420243
 H         1.7609895782       -2.3514094296       -2.3168970376
 H         2.4135018345       -1.8342361518       -0.8407862579
 H         3.0985793903       -4.2914240616       -1.8749563868
 H         3.1084286479       -4.6250422307       -0.0777631236
 H         2.2368419446       -5.6702584355       -1.2192042083
 H        -1.3812474972       -5.1844697538       -3.8820077887
 H         0.0550687087       -5.6566897492       -4.9420594870
 H        -2.7540175342       -2.2007757609       -4.1405888819
 H        -4.1304407998       -2.0702435526       -5.2732251953
 H        -2.1782100616       -1.8922236620       -6.6522294749
 H        -2.7918509319       -2.9265433288       -8.0032585046
 H        -1.2027137371       -2.5031135438       -7.8600060951
 H        -1.4533950015       -4.9790055109       -8.2194304606
 H        -0.7740352477       -5.8017223834       -6.8190148691
 H        -2.5391206424       -5.9396792094       -6.9158412536
 H        -5.5311103358       -3.5182237258       -4.1479210051
 H        -4.2954844004       -4.1402005458       -2.9692961693
 H        -6.4720962612       -0.0724071344       -0.8069513735
 H        -6.4843353986       -0.6521188797        0.9080054567
 H        -7.3124293400       -2.2851465429       -1.3914183623
 H        -6.8998505024       -3.1494713670        0.1912870478
 H        -6.7802671723       -3.9757194930       -1.2853541178
 H        -3.3416961685       -3.5993313887       -0.5773819704
 H        -4.7809966897       -3.8954933782        0.5465580500
 H        -4.6886426456       -4.6524685612       -1.0212545899
 H        -4.6113143400        1.5515269540       -0.0348376701
 H        -5.0793834807        1.1757408185        1.7331040168
 H        -5.2806669808        3.9703182405       -1.0371503736
 H        -5.8257275089        5.6602390343       -0.6486514554
 H        -8.7765086314        3.9925106703        1.5260355099
 H        -8.0095396332        4.1616889310        0.0063738644
 H        -7.7254995716        5.4292343290        1.3772907582
 H        -6.4907809346        4.2053211969        3.6300102069
 H        -7.2152745448        2.6660418394        3.3674385960
 H        -5.5123007772        2.7628980558        3.1986448364
 H        -3.4868309133        6.1101728304       -1.6000964156
 H        -3.5680289875        5.9294020076        0.1637394512
 H         0.0432898017        0.8101371789       -0.7709761917
 H        -1.5391473513        1.1284314506       -0.1229375193
 H        -1.4305794061        1.3724855196       -1.7772863434
 H        -1.8933422608        5.0010283031       -3.0805165388
 H        -1.3368950269        3.1846204482       -3.1417954248
 H        -0.1798877758        4.5908341487       -2.7839955675
 H        -0.9469367381        6.2985660642       -0.9747307880
 H        -0.9476833022        5.4718854971        0.6160430798
 H         0.4152459829        5.4240307463       -0.6329132137
 Na        1.6222196034        1.4989407799        1.2736351055
