155

 C         5.6209379608        1.2134378819       -2.7044398977
 C         4.7723063157        1.8927978505       -1.5554868913
 C         5.2217486872        3.1889973635       -0.9259206484
 C         4.9923953769        2.9823643286        0.6151529621
 C         6.2412196142        2.7300996237        1.5436162899
 C         6.7757508065        3.5890850016       -1.3323019193
 C         4.2553019860        4.2801691417       -1.3591245956
 O         3.8014038060        1.2046456667       -1.1813258489
 O         3.8522011482        2.9492734188        1.0018017627
 C         6.0623897974        2.9526572717        3.0053990703
 C         6.5256983520        1.7182772864        3.7753576034
 C         5.8687507888        1.3445717334        5.1209289273
 C         4.4116130590        0.8220548210        4.9683069084
 C         4.2951847033       -0.7671585682        4.5361809620
 O         7.3228613899        0.9298462909        3.2941828438
 O         3.4506921126        1.3624472809        5.4772230938
 C         6.7108539076        0.3745788086        5.9278904399
 C         5.9277055740        2.6144376094        5.9364464842
 C         2.8964865183       -1.2789213401        4.3122887886
 C         2.0266713050       -0.5420394377        3.2526173501
 C         0.4327362087       -0.6485003759        3.1919812669
 C         0.1493257722       -1.1908196775        1.7502763342
 C        -0.6544311236       -2.4636133423        1.5010826726
 C        -0.1195192191       -1.4937980773        4.3684713543
 C        -0.1016867632        0.7961863714        3.1729615989
 O         2.5848127738        0.2188966986        2.4907985837
 O         0.6189807746       -0.5523383453        0.8365062705
 C        -0.4081367568       -3.2891015871        0.3154791962
 C         1.0863835751       -3.6867449524        0.2326689452
 C         1.6291726464       -4.0334573673       -1.2190709137
 C         0.6851700408       -4.7082661595       -2.2715620395
 C         1.4395273299       -5.4273352220       -3.5098012066
 O         1.8621272728       -3.6530352861        1.1741426310
 O        -0.4738717721       -4.7623682140       -2.1188028552
 C         1.7527937740       -2.5660107165       -1.7768800313
 C         3.0392975723       -4.7248361388       -1.2766813930
 C         0.3616899764       -5.4523236037       -4.7429021687
 C        -0.0034373300       -4.0669877883       -5.1815460520
 C        -1.2290691254       -3.7700023649       -6.1739349932
 C        -2.4136552990       -3.9449891070       -5.1876322556
 C        -2.4987868764       -2.9737076419       -3.9943196577
 C        -1.0098047200       -2.3123596102       -6.6435207905
 C        -1.2390974211       -4.7799799795       -7.2724953889
 O         0.6483964172       -3.1442765035       -4.7026756982
 O        -3.0916721375       -4.9395864264       -5.2708670798
 C        -3.3509939696       -3.6210310016       -2.8994017549
 C        -3.9360951184       -2.5158738448       -2.0064494630
 C        -5.3390554765       -2.8943541758       -1.2428334411
 C        -5.3976641412       -1.7527413315       -0.1207574967
 C        -6.2320397379       -0.5274847064       -0.4311768906
 O        -3.3926095294       -1.4553899801       -1.8149628698
 O        -4.7695198250       -1.8172810167        0.9214601953
 C        -6.5312828730       -2.8633337567       -2.2706675124
 C        -5.1412468990       -4.2869509282       -0.6725303840
 C        -6.1337822381        0.6482437060        0.5600488578
 C        -6.9283276549        1.7530254618       -0.0425641530
 C        -7.4455599029        3.0286679885        0.8895868740
 C        -6.1308505000        3.4740024262        1.6133702600
 C        -5.3731615572        4.5328197103        0.8910911363
 C        -8.1244655040        4.0553244487        0.0254316566
 C        -8.4345191172        2.4468100503        1.9293646492
 O        -7.1258235592        1.8686030391       -1.2248628812
 O        -5.6983214547        2.9009251235        2.5613198583
 C        -3.9104341864        4.7703777456        1.2061421443
 C        -2.9848087646        3.6290759170        0.6184744845
 C        -1.5392463095        4.1586809337        0.1245970316
 C        -0.5848826363        3.0562426136       -0.1209370555
 C        -0.8384381501        2.0709825088       -1.3798985513
 O        -3.2424550614        2.4320634972        0.5855939976
 O         0.4357095593        2.9381314010        0.5345025305
 C        -1.5773641031        5.1906137967       -1.1095374405
 C        -1.0071963462        4.9693536413        1.3628805627
 H         4.9865558249        0.5528931876       -3.3061479949
 H         6.1481039545        1.7964292966       -3.4603268074
 H         6.2811036902        0.5685354222       -2.2332090125
 H         6.8993701093        1.8224790472        1.4148144798
 H         6.8835788525        3.3727861333        1.0552244204
 H         7.3046779761        2.7675974929       -0.8929981769
 H         7.0272224593        4.5474525640       -0.9798022336
 H         6.9493094943        3.5333864485       -2.4310581471
 H         3.1415010557        4.1922681151       -1.0618731444
 H         4.6297156991        5.2458029634       -0.9102057978
 H         4.2767346516        4.3615347634       -2.4446473359
 H         6.5376393588        3.8612925555        3.4579916701
 H         5.0122937086        3.2046639845        3.2758569079
 H         4.7834603087       -0.9654915883        3.5637880533
 H         4.8510848790       -1.3162877477        5.2360173264
 H         6.4897898435        0.3702151242        6.9822889898
 H         7.7487811320        0.8877228856        5.8524119585
 H         6.7792732422       -0.6075553128        5.4909848632
 H         5.4932403969        3.3880352274        5.4122556579
 H         5.4198044077        2.5778518327        6.8532486544
 H         6.9421290113        2.8135963284        6.1811011380
 H         2.3283060604       -1.2639870527        5.2843964887
 H         3.0192524772       -2.3505892618        4.0257215001
 H        -0.7026031252       -3.0466452529        2.4866252009
 H        -1.6943839948       -2.1224473466        1.4592332142
 H        -0.9057408146       -0.9716038011        4.6840754495
 H         0.5322954375       -1.5054947096        5.3126508040
 H        -0.2726214618       -2.5293740822        4.0706717700
 H        -0.5142476819        1.0290923459        4.1489737489
 H         0.6569341208        1.4569411870        2.8556830074
 H        -0.9704997173        0.8702138604        2.5423986428
 H        -1.1275140807       -4.1153334274        0.1997371571
 H        -0.5525579074       -2.6392096932       -0.5767720661
 H         2.1831305737       -4.7775817060       -3.8675427328
 H         1.7513487715       -6.4289510768       -3.2779851219
 H         0.9060579997       -1.9662327562       -1.7083385435
 H         1.9480058923       -2.5062770374       -2.8475903339
 H         2.5718193895       -2.0818555731       -1.3647634583
 H         3.5741410504       -4.2325556577       -2.0155109730
 H         3.5557533293       -4.5261878339       -0.2616554371
 H         2.9422685546       -5.7826165719       -1.3684676904
 H        -0.6001531571       -5.9768673017       -4.4624239403
 H         0.7538777092       -6.1595063422       -5.4428013908
 H        -1.5044905415       -2.7798345535       -3.6131426400
 H        -2.9492363621       -1.9998800873       -4.2908399999
 H        -1.3077353127       -1.5930844887       -5.8306868587
 H        -1.6748209188       -2.0741333559       -7.4183382892
 H         0.0389816888       -2.3345798466       -7.0492284977
 H        -2.2729937844       -4.7744475056       -7.7855922827
 H        -0.3787561703       -4.6032890280       -7.9787088194
 H        -1.1001457981       -5.8351107999       -6.9397071610
 H        -4.1722120495       -4.2401700557       -3.3488846054
 H        -2.6174362580       -4.3533035323       -2.4579118317
 H        -6.0591641353       -0.1261369733       -1.4707209168
 H        -7.2167477059       -0.9246713537       -0.4324077834
 H        -6.5767309549       -1.9492630558       -2.8606735411
 H        -7.5299199557       -2.8681138996       -1.9073623589
 H        -6.5301687654       -3.7810060805       -3.0153889244
 H        -4.4860474870       -4.2838279479        0.1968793340
 H        -6.1124749834       -4.6507459551       -0.2212621530
 H        -4.8292077581       -5.0224077638       -1.3956338842
 H        -5.0723221113        0.8398157545        0.5314345686
 H        -6.5894935023        0.5185774992        1.5520205115
 H        -5.6545407934        4.5405230679       -0.1346014867
 H        -5.9454270535        5.4103333283        1.2244279851
 H        -9.1035557682        3.6165574666       -0.2428094159
 H        -7.5630938635        4.3854292362       -0.8910256298
 H        -8.3420021580        5.0067825184        0.5750620770
 H        -8.9656638994        3.2316587375        2.4502397208
 H        -9.2634387797        1.8180628894        1.4847719993
 H        -7.8690811069        1.8934847784        2.6471867176
 H        -3.6094020642        5.7310699675        0.8510243835
 H        -3.8135116967        4.7849187663        2.2666461827
 H        -0.0712057579        1.3056032747       -1.4781322134
 H        -1.7736718060        1.4601279658       -1.2505714439
 H        -1.1833524322        2.5045044609       -2.3264938320
 H        -1.6421387540        6.2618612112       -0.7925773302
 H        -2.3255742481        5.1349212783       -1.8975564430
 H        -0.5922631063        5.1718479465       -1.6844507092
 H        -1.3344900394        5.9921496752        1.1921787178
 H        -1.2648328862        4.7055294594        2.3887674089
 H         0.0906531592        4.9437101577        1.2718683229
 Na        1.9030513821        1.3679928868        0.6127428609
