155

 C         5.6437393682        1.1635456978       -2.0102854873
 C         4.4879245478        2.0623883449       -1.2119073063
 C         4.9526479925        3.4254672620       -0.6160050060
 C         4.4756772296        3.4181663958        0.9433990971
 C         5.5470942082        2.7239424707        1.9131057322
 C         6.4507655536        3.7481460360       -0.8589779377
 C         4.2127313816        4.4926563305       -1.3531380689
 O         3.3607988827        1.6583304728       -1.1124613800
 O         3.4769886242        4.0191732413        1.2894661035
 C         4.9084104642        2.6207692003        3.3511553947
 C         5.4615044690        1.3716666193        4.0982866341
 C         4.7825880269        0.9036146966        5.4262894343
 C         3.4777922982        0.1764822533        4.9121100965
 C         3.7172023999       -1.0767940493        4.1247881499
 O         6.3629426030        0.7257849169        3.5858520086
 O         2.4492403860        0.7128389472        5.1871408886
 C         5.7245542277       -0.0748986705        6.1558526624
 C         4.3698554525        2.1284013005        6.3080640758
 C         2.5520724590       -1.6747062973        3.3518742808
 C         1.9287182885       -0.4838148767        2.7178617704
 C         0.2604222463       -0.4704516784        2.5749593563
 C         0.0897838257       -0.5032266561        0.9551078756
 C        -0.2963001279       -1.8035484710        0.2309023076
 C        -0.4211854342       -1.6305026232        3.3999368783
 C        -0.3627999211        0.8016411619        3.1315607295
 O         2.5418656919        0.5010859666        2.2538627677
 O         0.2924063560        0.4833102448        0.2601171949
 C         0.6771676867       -2.3369969436       -0.7432243394
 C         1.8567127687       -3.2202454050       -0.3067914271
 C         2.6844962824       -4.0030597182       -1.3605402408
 C         1.5495527292       -4.8272463069       -2.2629579909
 C         2.2652337793       -5.4316236470       -3.4774093967
 O         1.9926498275       -3.4022123762        0.9297901222
 O         0.3855675990       -4.6890059158       -2.1360069651
 C         3.3382592585       -3.0132424053       -2.3239345676
 C         3.7390931883       -4.9248135570       -0.6955474432
 C         1.2679931197       -5.7086518700       -4.6001875758
 C         0.9303561898       -4.3813806361       -5.4457882554
 C        -0.5318564151       -4.3699246970       -6.2357307301
 C        -1.5149349913       -4.6092806543       -5.1176272346
 C        -2.2111718830       -3.3941964370       -4.4496729426
 C        -0.6218120796       -3.0951217783       -6.9789065214
 C        -0.6421000711       -5.5603058611       -7.2145713335
 O         1.6610729646       -3.4196940256       -5.4488322229
 O        -1.7464336506       -5.7102838452       -4.6834809176
 C        -3.1378026703       -3.9084482647       -3.3418461077
 C        -3.5966762466       -2.9389935649       -2.2611165170
 C        -5.0427884557       -3.0418154674       -1.6013482045
 C        -5.2661250676       -2.1144075061       -0.2846446224
 C        -5.1365950332       -0.6163775771       -0.3264902935
 O        -2.8984419409       -1.9938639881       -1.9080361337
 O        -5.7704042305       -2.7190821694        0.6317862840
 C        -6.1059914410       -2.6055277755       -2.7124153299
 C        -5.3579670546       -4.6037415865       -1.2953653643
 C        -5.8115742014        0.1282386774        0.8395521833
 C        -6.5138467651        1.4929587827        0.3180676209
 C        -7.2053034363        2.3883613327        1.4772182779
 C        -6.2666040053        3.4891632150        2.0015730709
 C        -5.8962635248        4.6151105040        1.0325117232
 C        -8.5176490603        3.0277344933        0.8030176972
 C        -7.5449207541        1.5116025403        2.6453105941
 O        -6.4970677417        1.7322115896       -0.8696980374
 O        -5.8647247459        3.4386797536        3.1453884678
 C        -4.5676106709        5.3201533814        1.3047147911
 C        -3.4093579647        4.3755373856        0.7642408070
 C        -1.9388141036        4.9494678053        0.6976885745
 C        -0.9343972700        3.9137321158        0.3236352005
 C        -1.0382412359        3.1716792705       -1.0160746712
 O        -3.6507523998        3.2860476685        0.2239410102
 O        -0.0207758710        3.6176570988        1.0839608020
 C        -1.9644645452        5.9543814599       -0.4849366088
 C        -1.4779570859        5.6435468165        2.0451198731
 H         5.1638435436        0.4801165559       -2.7494348697
 H         6.2820312710        1.7710584595       -2.6553389905
 H         6.2501567514        0.6185342596       -1.3367636021
 H         5.6993030325        1.6737021725        1.5436421881
 H         6.4608643245        3.2670730196        1.9799017666
 H         7.1553261568        3.1955503535       -0.2103796774
 H         6.7395675482        4.7948636010       -0.5712963192
 H         6.7796333315        3.6038224347       -1.8654415427
 H         3.1199546909        4.2761696934       -1.4063843567
 H         4.3398308331        5.5273993876       -0.8796391309
 H         4.4165968213        4.6581510155       -2.4201628157
 H         5.1743993812        3.4284830961        4.1102097699
 H         3.8308323094        2.6322027101        3.2695726682
 H         4.3874294612       -0.6638764095        3.3638090089
 H         4.3130084313       -1.8039293814        4.7623461809
 H         5.1032141590       -0.9604998679        6.4338112121
 H         6.3009788519        0.2567931744        6.9748307665
 H         6.4645403084       -0.3744854820        5.3799440449
 H         3.5914384400        2.5926912573        5.6927362535
 H         3.8973679930        1.7934542448        7.1968925232
 H         5.2334811380        2.6713878847        6.6592087573
 H         1.9098565118       -2.1348156919        4.0950656285
 H         2.7769421010       -2.4756685612        2.6500210484
 H        -0.5279003361       -2.6010340323        0.8843667490
 H        -1.1901909244       -1.4528847115       -0.2967716574
 H        -1.3639307549       -1.7543403674        2.9794841147
 H        -0.4098265069       -1.4764726209        4.5280854130
 H        -0.0112146109       -2.7031753546        3.1904448931
 H        -1.3000324152        1.0942208680        2.7246378735
 H        -0.4356369125        0.6779287665        4.2116773235
 H         0.2317331606        1.7336249920        2.9338101105
 H         0.0529070881       -3.0919312910       -1.3784328760
 H         1.0421851669       -1.6466160380       -1.5025554145
 H         2.8892490418       -4.5903388813       -3.8879916839
 H         2.8133768908       -6.3528368953       -3.3013741215
 H         2.6881130366       -2.6446947704       -3.1491222731
 H         4.2408240482       -3.5099715379       -2.6859142172
 H         3.6539719193       -2.0957753089       -1.7933880445
 H         4.0707412582       -5.5952407790       -1.4205622961
 H         4.6787392788       -4.3942884349       -0.3137164066
 H         3.2576513987       -5.4252604173        0.1206036381
 H         0.3200988970       -5.9672285827       -4.2850376254
 H         1.6758648692       -6.4821015759       -5.2736629448
 H        -1.4846888644       -2.6695250970       -4.1225867310
 H        -2.8203450190       -2.9416483448       -5.2745609662
 H        -0.3104703920       -2.1908147053       -6.3329792131
 H        -1.6052024971       -2.8193032908       -7.1980066504
 H         0.0128745052       -2.9917040871       -7.9111458318
 H        -1.5234120480       -5.3346697399       -7.8478435587
 H         0.0623170661       -5.6428088147       -8.0213084260
 H        -0.5025885098       -6.6216273932       -6.8878369533
 H        -4.0664373971       -4.2901158706       -3.7589271290
 H        -2.5718525193       -4.8398682616       -2.9251485771
 H        -4.0598745103       -0.3187796518       -0.4614636272
 H        -5.6400195421       -0.3603018329       -1.2192616463
 H        -6.0233996389       -1.6242986398       -3.1524845800
 H        -7.0126425347       -2.8656739852       -2.3059668726
 H        -6.0056160002       -3.3031634272       -3.4990219629
 H        -5.5751468201       -4.7023643377       -0.2034680501
 H        -6.2600343814       -4.8769426214       -1.8043880497
 H        -4.5424900313       -5.1949661774       -1.7970294020
 H        -4.9946932307        0.2968594560        1.5365041855
 H        -6.6261448708       -0.4436930213        1.2320063488
 H        -5.9312421021        4.2569368706        0.0183590984
 H        -6.7934380555        5.2861494738        0.9076525252
 H        -9.3698813752        3.1483363207        1.4966460140
 H        -8.9488826350        2.4326789213        0.0515066358
 H        -8.1852149246        3.9473832559        0.2919646512
 H        -8.3385285336        1.9986384615        3.1976533462
 H        -8.0849035434        0.6870131327        2.2826945718
 H        -6.6753055777        1.3025485720        3.3183502869
 H        -4.4807010478        6.2942360884        0.8207960330
 H        -4.5105584774        5.5098550972        2.3143012992
 H        -0.5777298595        2.2485694185       -0.9941451495
 H        -2.0950246234        3.0908902347       -1.3156366829
 H        -0.6604249741        3.8848416514       -1.8230001665
 H        -2.5040852358        6.8897001795       -0.2191009811
 H        -2.5324606007        5.4732053043       -1.2699675798
 H        -1.0280377042        6.2614621619       -0.8153476406
 H        -2.2942871699        6.2040769790        2.2977742439
 H        -1.2000359573        4.9795308201        2.8127454069
 H        -0.6935022781        6.3636018410        1.7789773010
 Na        1.6123772162        2.1740411932        0.7964111774
