155

 C         5.1210629484        2.1960378284       -1.8789016002
 C         4.0486878858        2.7288431941       -0.7926683108
 C         4.6980594148        3.7937495785        0.2280423374
 C         4.3631842433        3.3322612978        1.7528873904
 C         5.4259982056        3.4519156645        2.8633365845
 C         6.2851410101        3.9343518038       -0.0963905858
 C         3.8568414802        5.0286497577       -0.0823644698
 O         2.9256596095        2.3175058776       -0.7939110152
 O         3.1636776625        3.1579311544        1.9871855297
 C         4.8034152426        2.8003544956        4.0918807566
 C         5.4677806347        1.4534774111        4.4425462623
 C         4.6275951943        0.7125202365        5.6254597770
 C         3.2251146043        0.1702383020        5.1203580947
 C         3.2456043018       -0.7422315571        3.8723252958
 O         6.4562198158        0.9930461874        3.9406151537
 O         2.1942291032        0.2953599498        5.7541099085
 C         5.5544996949       -0.4910886554        5.9770767482
 C         4.4228596691        1.5805750681        6.8697098653
 C         1.7904672566       -1.2293689491        3.4641627439
 C         1.0775294788       -0.1772916770        2.6720199531
 C        -0.3851503879       -0.4430195556        1.9992390852
 C        -0.0746400379       -0.5004794088        0.4239690990
 C        -0.4838120841       -1.7008216776       -0.4912914089
 C        -1.0681162460       -1.7078999373        2.6742802624
 C        -1.3507306514        0.7419961491        2.0965370029
 O         1.4864124119        0.9474026692        2.6275156586
 O         0.3895149002        0.4346208738       -0.2318307399
 C         0.7103240059       -2.2810048852       -1.3035997834
 C         1.6577093149       -3.1077159807       -0.4121725604
 C         2.6811771628       -4.0672057435       -1.1910117463
 C         2.0190453579       -4.7310635984       -2.5022897337
 C         2.5493638339       -4.2983807856       -3.8813270096
 O         1.8459666575       -2.7468511423        0.7633590725
 O         1.1122541216       -5.5131741378       -2.3473434625
 C         3.9508799265       -3.1904614050       -1.3246937153
 C         2.9755794704       -5.2718019567       -0.2194010136
 C         1.9068057939       -5.0848492166       -4.9716964668
 C         0.8638499838       -4.2814543960       -5.8997553985
 C        -0.2738265281       -5.1522928620       -6.4729467249
 C        -1.1596231124       -5.3960758485       -5.1854978065
 C        -1.6734965530       -4.1593439639       -4.4013514772
 C        -1.0366229290       -4.2865313944       -7.5287922995
 C         0.1337335893       -6.4015700349       -7.2200570008
 O         0.9393383384       -3.0759042142       -5.9334177678
 O        -1.2710611897       -6.5772009998       -4.8469247482
 C        -2.7195614023       -4.4921143948       -3.3611359135
 C        -3.2642942756       -3.1789233941       -2.7869357731
 C        -4.7169393974       -3.0419834226       -2.0830465446
 C        -4.6110977473       -2.1791226417       -0.6955540022
 C        -4.9830851373       -0.6389022477       -0.7521980459
 O        -2.5922806900       -2.1707629716       -2.8648783303
 O        -4.4801129634       -2.6576698449        0.3825518006
 C        -5.7867214703       -2.4723617359       -3.1183601803
 C        -5.1291023475       -4.5073516357       -1.6087988475
 C        -5.0670918164        0.0157103683        0.5966845873
 C        -6.2828840581        1.0616963090        0.6510976777
 C        -6.5265519128        1.8359467015        1.9652777159
 C        -5.7188185363        3.1553993353        1.8271700439
 C        -6.0263427332        3.9348241987        0.5573873296
 C        -8.0039022305        2.1726772656        2.0121024470
 C        -6.2060512714        0.9741856721        3.2347196056
 O        -6.8664882469        1.2230794079       -0.4030015316
 O        -4.7652167176        3.4047162095        2.5519617058
 C        -4.9659426873        5.0891612191        0.3286354279
 C        -3.5431390654        4.5014881515        0.3451104087
 C        -2.2801195532        5.5418932665        0.7897797083
 C        -1.1502692140        4.7082064889        0.3211312758
 C        -0.8811439315        4.6418907892       -1.2551325444
 O        -3.2402986081        3.3977801487       -0.0110083684
 O        -0.3372163245        4.2291422828        1.0974006123
 C        -2.2823581671        6.9172895017        0.1426790862
 C        -2.2805855990        5.6153831375        2.3555091644
 H         4.8256512670        1.1821760833       -1.9523818040
 H         5.0770657428        2.7445679967       -2.8367229924
 H         6.0894639247        2.1856566264       -1.5992461345
 H         6.4330349252        3.1124974617        2.6383993970
 H         5.5868562031        4.5282689193        3.0453973401
 H         6.8252722004        3.0031556255        0.0873883014
 H         6.6154305994        4.6733444830        0.6545660925
 H         6.4356768916        4.2923548364       -1.0973126533
 H         2.8175950196        4.6977660625        0.0324333870
 H         4.1621829159        5.8578332052        0.6848507670
 H         4.0271867573        5.3283414875       -1.1724172738
 H         4.9440661629        3.3197428615        5.0336397522
 H         3.6923069921        2.6075420211        3.8620993678
 H         3.9076158920       -0.2258991954        3.1264649230
 H         3.7834452185       -1.6544673186        4.0842831172
 H         5.1507344376       -1.3447860193        6.5119468218
 H         6.3612081908       -0.1673848351        6.5462851365
 H         5.9767121334       -0.9015955311        5.0612807991
 H         3.5570208201        2.3267971945        6.8251798400
 H         4.2555071971        0.9569500267        7.8198209088
 H         5.3857445405        2.0964022453        7.2259244201
 H         1.3277548947       -1.3097846240        4.4623700592
 H         1.7630577002       -2.2101762699        3.0429272624
 H        -0.9070022483       -2.5495768105        0.0970789212
 H        -1.2561277743       -1.5162271733       -1.2184475514
 H        -1.9320397839       -1.7791944585        2.0551189842
 H        -1.2337933680       -1.4027771348        3.7669376150
 H        -0.3546463430       -2.5106602551        2.7520114491
 H        -2.1825679689        0.5036528120        1.4637000465
 H        -1.6566750473        0.8568643658        3.1484063947
 H        -0.9740217012        1.7490559442        1.6664427870
 H         0.1615321911       -2.9655215282       -1.9984937275
 H         1.2911623301       -1.5344219443       -1.8452631124
 H         2.2291821481       -3.2663237327       -4.0284560715
 H         3.6234351137       -4.1841210208       -3.7602288753
 H         3.7469375862       -2.3847474664       -2.0609186623
 H         4.7372899883       -3.8211873481       -1.6142401745
 H         4.0382314317       -2.7297617758       -0.3273547188
 H         4.0192344472       -5.5319221914       -0.0826229529
 H         2.6846711300       -5.0128936089        0.8675284921
 H         2.2877455380       -6.1559214608       -0.5039032322
 H         1.2622809293       -5.8328589009       -4.4721776280
 H         2.5359825265       -5.6635977797       -5.5933172674
 H        -0.7152066358       -3.6851098836       -3.9980483269
 H        -2.0586485301       -3.5283752673       -5.1642074299
 H        -1.2109753689       -3.2832428750       -7.1114944415
 H        -1.9345070619       -4.7939176156       -7.7298416169
 H        -0.4299455182       -4.2038085913       -8.4388946966
 H        -0.8261567438       -6.8458822980       -7.5957227852
 H         0.7909096835       -6.3055497782       -8.0743985213
 H         0.5379026140       -7.2432443374       -6.5430718613
 H        -3.5848823302       -5.0248064283       -3.9284345805
 H        -2.3453534963       -5.2364826560       -2.6401521830
 H        -4.3563044548       -0.0340472550       -1.4698446847
 H        -5.9098304303       -0.6774309338       -1.1999026680
 H        -5.5060810773       -1.4318876769       -3.3583386003
 H        -6.7559930582       -2.5511275974       -2.6542140380
 H        -5.7795342335       -2.9965385437       -3.9632118560
 H        -4.4695440166       -4.8255770155       -0.8410747431
 H        -6.0945399008       -4.4228494705       -1.2411522049
 H        -5.1885532406       -5.3080475494       -2.3595759934
 H        -4.1597737610        0.6391624830        0.7230205183
 H        -5.0957079761       -0.6103552244        1.4665939407
 H        -5.7778234019        3.2509370851       -0.2335862823
 H        -6.9746233149        4.4565369392        0.4347726642
 H        -8.4897804153        1.1974775251        1.9971183513
 H        -8.2159642210        2.6641000239        1.0825880427
 H        -8.2239745642        2.7461728275        2.9332094474
 H        -6.1666362883        1.7061641943        4.0432782445
 H        -7.0335971602        0.3161274970        3.4561457612
 H        -5.2137554951        0.4523732822        3.1329071328
 H        -5.1103933720        5.7117271368       -0.5242367856
 H        -5.1087295624        5.6984727968        1.2135044390
 H         0.0486801226        4.1864738571       -1.3905693148
 H        -1.5703293425        4.0121553924       -1.7467029610
 H        -0.6859902243        5.5782847552       -1.7950460746
 H        -3.0987166164        7.5421757181        0.5442011649
 H        -2.3624065470        6.7688402784       -0.9521240533
 H        -1.3447384360        7.3647511488        0.4008099173
 H        -3.2299013749        5.9349645176        2.7515194578
 H        -2.1283762144        4.6030667477        2.7441915750
 H        -1.3964078551        6.2762074418        2.6836614665
 Na        1.3110165032        2.4144291309        0.6337079705
