155

 C         5.1910461826        2.3299957513        0.3288139623
 C         3.9469827913        3.3213030033        0.3800182324
 C         4.1826434513        4.4835578683        1.5150197770
 C         3.7028395958        3.8743588674        2.8268062882
 C         4.5226224310        3.8818421970        4.0639286687
 C         5.6781965238        4.9739750874        1.5934313578
 C         3.1098434142        5.5182504945        1.1096045189
 O         2.9512995467        3.2933986520       -0.3040186585
 O         2.5572266524        3.3759343874        2.8974570445
 C         4.2176042593        2.7249639730        5.0946037314
 C         4.6657173139        1.4233860671        4.4306312956
 C         4.4509851620        0.1287779274        5.2546479957
 C         2.8199908293       -0.1487506882        5.1354875948
 C         2.4361932338       -1.4600331049        4.1949532341
 O         5.0582495452        1.4889308096        3.2779119358
 O         2.0431793687        0.6040748770        5.6428207685
 C         5.2884520240       -1.1603062181        4.7500754381
 C         4.7540296513        0.5029997586        6.7453291305
 C         0.9896617896       -1.4012999713        3.7647455562
 C         0.8438171801       -0.3139615665        2.6199602873
 C        -0.3357902703       -0.3924238682        1.6068640583
 C         0.1861092205       -0.2117903331        0.1458918620
 C        -0.2186443801       -1.1444081441       -0.9921678456
 C        -1.2070276424       -1.5964144374        1.7575435551
 C        -1.3168455010        0.7860364146        1.8077071345
 O         1.5303961854        0.6610275098        2.6040770134
 O         0.9373898926        0.7092068508       -0.1048442046
 C         1.0436172724       -1.6151730775       -1.6862955754
 C         1.9872855232       -2.4140189496       -0.6892254073
 C         3.2452292328       -3.1473953948       -1.5200397708
 C         2.3776937284       -4.3063783693       -2.1820919581
 C         2.9156529867       -5.0772480977       -3.4145517844
 O         1.9188762936       -2.5771891330        0.5357457172
 O         1.3413371086       -4.5995688614       -1.6146684550
 C         3.8750486986       -2.0850275295       -2.4621199287
 C         4.3033270145       -3.7681183712       -0.5975977626
 C         1.7956038861       -5.8354446021       -4.1801474745
 C         1.1652147571       -4.7444806984       -5.1635093302
 C         0.1593207433       -5.2372792448       -6.2906293845
 C        -1.2849078146       -5.3213252552       -5.5682485216
 C        -2.1542294807       -4.0141675258       -5.6512916401
 C         0.1391266988       -4.3543395580       -7.5252099238
 C         0.4649270225       -6.6863571747       -6.8350796740
 O         1.3638340796       -3.5447855852       -5.1321876097
 O        -1.5792064372       -6.2504205472       -4.8756113162
 C        -3.4174021813       -3.9448296888       -4.7740966512
 C        -3.2890176464       -3.0850939604       -3.5024508376
 C        -4.2479646619       -3.4134365264       -2.3013701942
 C        -4.1952288663       -2.2570920711       -1.2017213437
 C        -5.3856776746       -1.2327290206       -1.1191090760
 O        -2.4231417055       -2.2455663631       -3.3448022932
 O        -3.3534248225       -2.3421896068       -0.3120826397
 C        -5.7586197597       -3.7351062936       -2.7554716750
 C        -3.6492683773       -4.6360627821       -1.5656824646
 C        -5.2764438418       -0.0336785794       -0.2216112723
 C        -6.5084049066        0.3143732461        0.6964117375
 C        -6.1430768411        1.2612738501        1.9632087005
 C        -5.2571084441        2.4804258711        1.3719825114
 C        -5.9665885275        3.4827131506        0.4572089954
 C        -7.4665102742        1.4613599494        2.7494292010
 C        -5.1292744813        0.4733608969        2.8292566192
 O        -7.5881969145       -0.1165496883        0.5311347272
 O        -4.0857869965        2.5785381214        1.4866565178
 C        -5.1056948770        4.7657783912        0.2611989529
 C        -3.6478220641        4.5325664012       -0.3542807068
 C        -2.5558394970        5.5166720087        0.2373963734
 C        -1.2903968976        4.6127832500        0.2678096642
 C        -0.4173828099        4.2253389472       -0.9914316614
 O        -3.3833221921        3.8782439833       -1.3126458300
 O        -0.8812887948        4.1107750288        1.3146498619
 C        -2.4408297582        6.6428272708       -0.7405157025
 C        -2.7984998147        6.0740191216        1.6147975994
 H         4.9331645177        1.5128525019       -0.2842912805
 H         6.0829578256        2.7813334527       -0.1227325210
 H         5.2935561346        2.0972699153        1.3437356153
 H         5.6052370297        3.5961008185        3.8015075624
 H         4.5867509917        4.9268938078        4.3495945145
 H         6.4119194303        4.2366317813        1.8826117124
 H         5.7747540224        5.8343436440        2.2237619176
 H         5.9913544090        5.3668794334        0.6093562866
 H         2.1260746277        5.1464476721        1.3437250004
 H         3.3734024764        6.5574812364        1.5667118643
 H         3.2489525266        5.5886083879        0.0201163525
 H         4.7266491159        3.0191405455        6.0644528320
 H         3.2173875008        2.6217657451        5.3653902035
 H         3.1241482760       -1.3697567806        3.3434684276
 H         2.6922926525       -2.4539667280        4.6437869268
 H         5.0852191192       -1.9946958567        5.4104411120
 H         6.3510933050       -0.9935075348        4.7174034468
 H         5.0397399531       -1.3233364818        3.7114113409
 H         4.0112385543        1.3226244016        7.0074229432
 H         4.6434785638       -0.4248885024        7.3891781041
 H         5.8420983876        0.8727225179        6.7626958933
 H         0.3765607184       -1.0654491151        4.5729647792
 H         0.6705113336       -2.3634728520        3.4430337879
 H        -0.6806479343       -2.1172072874       -0.7805374565
 H        -0.8296229936       -0.6655280071       -1.7512261933
 H        -1.9927879478       -1.5354601400        1.1033233545
 H        -1.8087190836       -1.5956050078        2.6593738722
 H        -0.7807285383       -2.4884807036        1.4566899928
 H        -1.9792164356        0.9141725581        0.9639917372
 H        -1.9591481011        0.6512911783        2.6440954186
 H        -0.7960529228        1.8068929487        1.8179420073
 H         0.8074754849       -2.0619321378       -2.5790079237
 H         1.6385607338       -0.7768296285       -1.8931494674
 H         3.4978899208       -4.4833783107       -4.1259114639
 H         3.5644900159       -5.8825145118       -3.1060388118
 H         3.4970416904       -2.0517229302       -3.4530536331
 H         4.9474529081       -2.1542211131       -2.4465756173
 H         3.7249868974       -1.0976455663       -2.1248055635
 H         4.6623501335       -4.7427614478       -0.9865828695
 H         5.2383381471       -3.1280545003       -0.4092763453
 H         3.7542780017       -4.0443754665        0.3942514005
 H         1.1219225216       -6.1202170844       -3.4330203829
 H         2.1366542673       -6.7554804355       -4.6722028206
 H        -1.4395104414       -3.1298816724       -5.5125890588
 H        -2.4867025576       -3.8848547922       -6.6323257500
 H        -0.0539775665       -3.2962302588       -7.2853107021
 H        -0.5867502007       -4.7497302341       -8.2265958977
 H         1.1533298962       -4.4263835873       -7.9500008347
 H        -0.0739246084       -6.7813552535       -7.7354266354
 H         1.5269109593       -6.7412674245       -7.1075520710
 H         0.3146929793       -7.2883430756       -5.9974507280
 H        -4.3341672831       -3.6774382223       -5.3870032498
 H        -3.5803398493       -4.9797977251       -4.4133450155
 H        -5.7865786523       -0.9215139791       -2.1133498619
 H        -6.0872066928       -2.0173609816       -0.7532784663
 H        -6.1997409863       -2.8846641285       -3.2948693218
 H        -6.3414645934       -4.0161697186       -1.8729717740
 H        -5.8455045978       -4.6550707735       -3.3508288947
 H        -2.5725155711       -4.7008476457       -1.6534756218
 H        -3.9746235907       -4.7342572094       -0.4961507737
 H        -3.9709096291       -5.5593246429       -2.0018511055
 H        -5.0937226591        0.8385093405       -0.8960653250
 H        -4.4028903447       -0.1217733714        0.4320852331
 H        -5.9025724645        2.9732011486       -0.4780084536
 H        -7.0925560638        3.5343589553        0.6628946110
 H        -8.3164985968        1.0942628355        2.1554150532
 H        -7.7378529446        2.5244204677        2.8467869984
 H        -7.5020674543        1.1057541763        3.7467459864
 H        -5.0586481849        0.7256367384        3.8951288582
 H        -5.3512989535       -0.5953566716        3.0153357455
 H        -4.1198322167        0.6619643896        2.5068833415
 H        -5.6620976829        5.3183054893       -0.4711098496
 H        -4.9861883576        5.3484254571        1.1116925351
 H         0.3271977401        3.4882812640       -0.7513000297
 H        -1.0446578075        4.0169276566       -1.8903596535
 H         0.1606605841        5.0742228941       -1.2046113980
 H        -3.3167787596        7.2552063203       -0.8060891682
 H        -2.1777722120        6.2482140576       -1.7198538226
 H        -1.5920104845        7.3284227025       -0.4837093514
 H        -3.6053275486        6.8715175486        1.6013589743
 H        -3.1303898347        5.3982619741        2.4434190521
 H        -1.9905296557        6.6245304568        2.0906205099
 Na        1.2305463343        2.6559241716        1.1845126692
