155

 C         5.3994527737        2.6155256821        0.0782718794
 C         4.1132854955        3.3780402285        0.4308784307
 C         4.0839985092        4.4999889040        1.6262211139
 C         3.5860306433        3.8043172264        3.0703501754
 C         4.5164378902        3.8859548012        4.1807859817
 C         5.4979676256        5.1877295254        1.6202878351
 C         3.0418309538        5.6387496909        1.1886938078
 O         3.0562811040        2.9820470256       -0.0398299144
 O         2.5451111262        3.3075549714        3.2686650623
 C         4.4280041646        2.8269595828        5.2167443110
 C         4.8413261885        1.4357183733        4.7202369681
 C         4.4669410313        0.0893466216        5.4792282552
 C         2.9333312422       -0.1579535016        4.9829277470
 C         2.6161071939       -1.3682077446        4.0204182741
 O         5.3830686569        1.2503022692        3.6320889783
 O         2.0514478180        0.4837046075        5.5339878263
 C         5.4916502781       -0.8999792991        4.8436897159
 C         4.6540565210        0.0438578860        7.0050589500
 C         1.1147228114       -1.3825769516        3.5701619230
 C         0.7715990458       -0.2536854966        2.5569006837
 C        -0.4507149248       -0.3781262026        1.6385407181
 C         0.0496861830       -0.2206874450        0.0816336821
 C        -0.2868448636       -1.2525056272       -1.0172065859
 C        -1.1245248858       -1.7110212311        1.8926624114
 C        -1.4409735287        0.7504625264        2.0257918681
 O         1.5070260679        0.7423943294        2.4165634027
 O         0.7390318550        0.7781358863       -0.1010103756
 C         0.9826835920       -1.6884502842       -1.9465752053
 C         2.0146000664       -2.2999279611       -0.9631890059
 C         3.1128548895       -3.1750266337       -1.6837805169
 C         2.3628498842       -4.3946283203       -2.2631967447
 C         3.0770030335       -5.2913537532       -3.3183904989
 O         1.9816957063       -2.1934975899        0.2349290907
 O         1.2605124613       -4.6703289194       -1.8275176925
 C         3.8888615037       -2.4704716228       -2.8675331737
 C         4.1331404636       -3.6353230308       -0.5081738219
 C         1.8814375129       -5.8347026342       -4.2174987288
 C         1.1375972369       -4.7182694253       -5.0389839861
 C         0.1537847890       -5.1896465858       -6.1112441678
 C        -1.2265860437       -5.0880593723       -5.4214000716
 C        -2.0170642396       -3.8188224408       -5.5734932032
 C         0.3182035479       -4.2522773197       -7.3808703278
 C         0.3166546300       -6.6810563731       -6.5274909535
 O         1.3969775314       -3.5106806657       -5.0098075019
 O        -1.4472276388       -5.9668403608       -4.5656954515
 C        -3.3104161529       -3.9305496247       -4.7359902613
 C        -3.2725689134       -3.0253819102       -3.5084600400
 C        -4.1977122902       -3.5058053280       -2.2861482189
 C        -4.2837748144       -2.3482071508       -1.2055583409
 C        -5.4725650301       -1.3217907400       -1.2365955204
 O        -2.5901003203       -2.0358230688       -3.5182601624
 O        -3.4142264704       -2.2101974711       -0.3643924546
 C        -5.5947639609       -3.8106662356       -2.7766478810
 C        -3.4619602554       -4.8037251138       -1.6881161596
 C        -5.0737344895       -0.1430148292       -0.2365221965
 C        -6.2303614929        0.2521105205        0.6281536593
 C        -6.0905203840        1.1389638899        1.8704727162
 C        -5.2777792750        2.3757887197        1.4089986922
 C        -6.0388219458        3.3613113144        0.4570995694
 C        -7.4120298016        1.6831590658        2.5095859825
 C        -5.1839979935        0.3740837617        2.9805248393
 O        -7.3575767654       -0.0121201137        0.1827988489
 O        -4.0905230814        2.6233574912        1.6636106831
 C        -5.3215023811        4.6635655540        0.1598480770
 C        -3.8166081496        4.4632344457       -0.4721444347
 C        -2.6455924923        5.4205719450        0.1156506859
 C        -1.3335441236        4.6238044938        0.2143376841
 C        -0.5016375808        4.3009430965       -0.9966599664
 O        -3.6569420358        3.6967419311       -1.4121034183
 O        -0.9378781052        4.1639579224        1.2621096295
 C        -2.4705225491        6.6221847295       -0.8986189108
 C        -3.0660899701        6.0338175349        1.5143819487
 H         5.1535753656        1.7901353165       -0.6723011645
 H         6.0688307955        3.2838583146       -0.4639573476
 H         5.7873204335        2.3226437014        1.1075413243
 H         5.5359502867        3.9457999859        3.9241435956
 H         4.2647770995        4.9065736903        4.5956730356
 H         6.3440041983        4.5156247967        1.6250081832
 H         5.6850926566        5.9219518889        2.4125772935
 H         5.6179813203        5.7387617292        0.7356969018
 H         2.0782868096        5.0748015614        0.9469143218
 H         2.9057205634        6.3025439721        1.9884904401
 H         3.4556554392        6.1933177836        0.3275680212
 H         5.1465061428        3.2018081828        5.8890978653
 H         3.4457283261        2.9282832579        5.7938994062
 H         3.3849930344       -1.3169639712        3.2444986793
 H         2.8279422282       -2.2787584990        4.5602629927
 H         5.4559682546       -1.8002633704        5.3989446841
 H         6.5035762078       -0.4182967784        4.9734532404
 H         5.3979257667       -1.0618779849        3.8013257261
 H         4.0142545560        0.8187236452        7.4213859069
 H         4.2978126028       -0.9140853286        7.3503400739
 H         5.6908005149        0.1912032717        7.1967211855
 H         0.4909536678       -1.0928031588        4.4644240832
 H         0.8098621205       -2.4041362452        3.2226342391
 H        -0.5676190729       -2.1831389338       -0.6027913603
 H        -1.1686935974       -0.9751597792       -1.6569332586
 H        -2.1447158478       -1.9100391315        1.4812396830
 H        -1.3742689198       -1.9315172849        2.9085366677
 H        -0.5213491565       -2.5811475985        1.3476683164
 H        -2.2357454009        0.9008213982        1.2667383414
 H        -2.0196275297        0.5583721614        2.9507472368
 H        -0.9743002105        1.7267778904        2.0685724166
 H         0.6384683144       -2.6120841869       -2.5665944171
 H         1.2942973520       -0.8475827459       -2.6478211866
 H         3.6512554780       -4.8357704050       -4.1137106528
 H         3.7493901682       -6.0546088674       -2.8424341972
 H         3.4691322341       -2.7719261287       -3.8261096244
 H         4.9596882857       -2.7065004432       -2.8388402038
 H         3.9383628334       -1.3770313176       -2.9292145544
 H         4.6830538760       -4.4772092082       -0.8666756541
 H         4.7820955255       -2.8007081883       -0.4000177135
 H         3.7495761823       -3.9170536940        0.3781716522
 H         0.9837049001       -6.3557122842       -3.6921392175
 H         2.2376683925       -6.5734635747       -4.9458592886
 H        -1.3400511654       -3.1016652251       -5.1417787509
 H        -2.2730301801       -3.3751666118       -6.6119491177
 H        -0.0983270253       -3.2386627868       -7.0606933260
 H        -0.3217699157       -4.6462153501       -8.1508939347
 H         1.4025903181       -4.1087166878       -7.6768905119
 H        -0.4823742213       -6.7546460710       -7.2858363296
 H         1.2737744101       -6.8216756194       -7.0055009347
 H         0.3085036065       -7.2525239482       -5.5971481381
 H        -4.0824888744       -3.4979301255       -5.3528627583
 H        -3.6301766713       -4.9658512407       -4.5735540462
 H        -5.5742922503       -1.0037264572       -2.2818363847
 H        -6.4619719667       -1.7735819053       -0.9825902671
 H        -5.9771705116       -2.8692217629       -3.3084167809
 H        -6.3385204096       -4.1026275529       -2.0006158468
 H        -5.5573142785       -4.6515388751       -3.4119961791
 H        -2.4831071304       -4.5757981193       -1.2503602041
 H        -4.0118698676       -5.1955738199       -0.8618801321
 H        -3.2574086950       -5.5782352021       -2.4570021493
 H        -4.7141967370        0.7348077879       -0.7928938942
 H        -4.2070364191       -0.4700952440        0.3916986479
 H        -6.2029720057        2.7368919053       -0.4726598184
 H        -6.9624869756        3.5003282546        0.9120363482
 H        -8.2684918160        1.5117521595        1.8602301507
 H        -7.4555294435        2.7300754396        2.7334669094
 H        -7.6747572194        1.1766683311        3.4638190321
 H        -4.8377341228        0.9741070676        3.7999771767
 H        -5.7554093097       -0.3099142406        3.5214736933
 H        -4.2308934992       -0.0425908767        2.6801488009
 H        -5.8983388880        5.0854214117       -0.7173881166
 H        -5.3976688083        5.4370170936        0.9888104317
 H        -0.5234352693        3.1730357120       -1.0812088799
 H        -0.8870039085        4.6873848786       -1.9042370471
 H         0.5772968618        4.5832181274       -0.9016754246
 H        -3.4608441926        6.8782327431       -1.3819831950
 H        -1.6880284276        6.4728203927       -1.6710334856
 H        -2.1538693787        7.5438432114       -0.4420686146
 H        -3.8464821365        6.7417858995        1.5531203547
 H        -3.2457635257        5.3734361190        2.3157114687
 H        -2.2066920726        6.5703394048        1.8720695781
 Na        0.9917553168        2.7197950090        1.1994122724
