155

 C         5.3974853688        3.0241183847       -0.0291298378
 C         4.0755768178        3.3433506578        0.7007553245
 C         4.0882600991        4.5541532936        1.7974197985
 C         3.7903463269        3.8376788660        3.0767835016
 C         4.4969858006        3.8537259975        4.3322540185
 C         5.3598537794        5.3510124286        1.8133753161
 C         2.8713554349        5.4472531259        1.4236668442
 O         3.0872332192        2.6932162502        0.3844412122
 O         2.6007514671        3.4320208017        3.1029705340
 C         4.3031412338        2.6350548917        5.3987530035
 C         4.9698787471        1.4132469112        4.8119161594
 C         4.5603875497        0.0077872462        5.4421296396
 C         3.0989986770       -0.1777197129        4.8853175653
 C         2.8942857999       -1.1629982696        3.7314377738
 O         5.6846767492        1.5058553923        3.8295956336
 O         2.2298992359        0.3941715576        5.5151523796
 C         5.4586498984       -1.1751378118        5.1058944784
 C         4.3787714010        0.0914866050        6.9899546068
 C         1.4539958875       -1.3594470398        3.3887195507
 C         0.8997768620       -0.1876786751        2.5385487081
 C        -0.3878169419       -0.4760322403        1.7104966487
 C        -0.1450741156       -0.2009647012        0.1124804083
 C        -0.4138645526       -1.2910576780       -0.9708434652
 C        -1.0313014682       -1.8732284258        1.9074277401
 C        -1.4804152902        0.5532431602        1.9954400141
 O         1.5023261182        0.8458538691        2.4548913278
 O         0.2302827664        0.9009425868       -0.2424198330
 C         0.7324628820       -1.4852629645       -1.9385294649
 C         1.9569124593       -2.0905625849       -1.1303652409
 C         2.9677491039       -3.1319923851       -1.8068265948
 C         2.2211388181       -4.5668372595       -2.3430229031
 C         3.0115180865       -5.5976412586       -3.2143890370
 O         2.2618243058       -1.6844896521       -0.0105754340
 O         1.1787576833       -4.8365104298       -1.8152917303
 C         3.7138911616       -2.4452586056       -2.9183282718
 C         4.0301484052       -3.5457792773       -0.6942536163
 C         2.1887131333       -6.0192837438       -4.3517187764
 C         1.4809617577       -4.8015538751       -5.0117972430
 C         0.2949062220       -5.1480176064       -6.0570817167
 C        -1.1114018143       -4.8933300372       -5.2290591664
 C        -2.0017486136       -3.7098791748       -5.5855146172
 C         0.3060120725       -4.2570398715       -7.3259477984
 C         0.2686205206       -6.6557754137       -6.4762171329
 O         1.6087137694       -3.6787703991       -4.6207836093
 O        -1.4701257009       -5.6320295419       -4.3599187781
 C        -3.3584333818       -3.6682864945       -4.8035403606
 C        -3.3629249904       -2.9192290400       -3.4597692820
 C        -4.1970772082       -3.5243927721       -2.2880742083
 C        -4.1393356876       -2.4170349199       -1.1953705420
 C        -5.2026345313       -1.2618800272       -1.2633567946
 O        -2.8481313837       -1.8132262339       -3.3606202514
 O        -3.1941068047       -2.4058684635       -0.4554105567
 C        -5.5893171676       -3.9876181134       -2.8335381286
 C        -3.4518967547       -4.7654207895       -1.7642969941
 C        -5.0149765346       -0.2630822309       -0.1981218026
 C        -6.2373605668        0.3246082624        0.4903990199
 C        -6.0225826633        1.0744830396        1.7605990393
 C        -5.1933201809        2.4013156806        1.2338472444
 C        -5.9063191141        3.3188105367        0.1875876125
 C        -7.3863111188        1.5210502682        2.3066809867
 C        -5.2764893534        0.3717808348        2.8589792701
 O        -7.3540750758        0.1102920559        0.1051335561
 O        -4.1724969599        2.7254890883        1.7807012546
 C        -5.3582537138        4.6942245852       -0.0175418571
 C        -3.9822586613        4.4241715920       -0.5118798048
 C        -2.7167277944        5.3523715100        0.0218608441
 C        -1.4037039411        4.5510719204        0.0611139380
 C        -0.7614928105        4.0457906734       -1.1912958851
 O        -3.7162290149        3.5571192346       -1.3066261464
 O        -0.9166270554        4.2683198860        1.1733049536
 C        -2.8013889110        6.6052788007       -0.9577047553
 C        -2.9730799383        5.7946888733        1.4696685880
 H         5.1529256388        2.3525436522       -0.7825403122
 H         5.8291780236        3.9299197203       -0.4852811726
 H         6.0349529874        2.6205219287        0.7005504141
 H         5.5808674382        3.9067100907        4.0706442612
 H         4.2665385537        4.7937480943        4.7755106790
 H         6.2293000464        4.6939099103        1.9986492245
 H         5.4413577710        6.1137714393        2.5757776084
 H         5.6032572013        5.8514796090        0.8209930217
 H         2.1472054614        4.7953305141        1.0953538525
 H         2.4657518616        6.0629716396        2.2306756234
 H         3.1667963088        6.1014365589        0.6377195813
 H         4.8727707114        3.0330753119        6.3035229721
 H         3.2932190772        2.6332036405        5.6850320606
 H         3.5369762750       -0.9591450878        2.8715816216
 H         3.2478508899       -2.1254020015        4.1640501038
 H         4.8245617484       -2.1156271938        5.2379770247
 H         6.2999659177       -1.1997787432        5.7426875037
 H         5.8215606918       -1.1278728166        4.0325760740
 H         3.5613014318        0.6366115174        7.3196059967
 H         4.1007814514       -0.9199823251        7.2388697554
 H         5.3043900844        0.4066790228        7.4586550268
 H         0.7834230174       -1.5249075147        4.2256816039
 H         1.4418352459       -2.2443296147        2.7546339215
 H        -0.4796866352       -2.3482587362       -0.5139462712
 H        -1.3594691453       -1.2306150708       -1.4435382939
 H        -1.8541111936       -2.0445637612        1.2503667836
 H        -1.5194589047       -2.0258405997        2.9198176380
 H        -0.4627672007       -2.6808123931        1.7635222075
 H        -2.3982620812        0.3559084353        1.4643179042
 H        -1.7733658486        0.5751127415        3.0444933569
 H        -1.1896905637        1.5534911344        1.7678714865
 H         0.5200685383       -2.1683562866       -2.7023503092
 H         0.9148117452       -0.4947948254       -2.3145101960
 H         3.9996031884       -5.2754007061       -3.5924747811
 H         3.1771325653       -6.4366376154       -2.5798678840
 H         3.1174862139       -1.7500903185       -3.5539763539
 H         4.2526226661       -3.1135842631       -3.6067218381
 H         4.5670658428       -1.8735807315       -2.5086082873
 H         4.9626225331       -3.9740492386       -1.1526295005
 H         4.1691410620       -2.6878809754       -0.0540214663
 H         3.6608630592       -4.4379605334       -0.0712667329
 H         1.4428775446       -6.6440065021       -3.9715826455
 H         2.6769750324       -6.6235404421       -5.1446900124
 H        -1.4976563557       -2.7344828824       -5.4825858898
 H        -2.2456068406       -3.7812885360       -6.5960072141
 H         0.5793083982       -3.2869114366       -7.1970384207
 H        -0.7143949843       -4.2456660561       -7.8244619027
 H         0.9753390738       -4.7144852163       -7.9793328493
 H        -0.4723845615       -6.6827412179       -7.2411740797
 H         1.2605146721       -6.9902148530       -6.7829210468
 H        -0.0735022248       -7.1666927080       -5.5648775828
 H        -4.1649900480       -3.3443447450       -5.4797981023
 H        -3.6221768713       -4.6773797137       -4.5404921183
 H        -5.1419804715       -0.8787395848       -2.2849264912
 H        -6.2786072841       -1.5961393014       -1.2477105770
 H        -6.1210845980       -3.2462536920       -3.2404675176
 H        -6.1617310182       -4.2746009737       -1.9858765471
 H        -5.4167545098       -4.9021410996       -3.5165652802
 H        -2.8551388965       -4.6212540566       -0.8456031612
 H        -4.1647792393       -5.5419866713       -1.3608584361
 H        -2.8024418400       -5.1314747391       -2.5922133410
 H        -4.3712395318        0.5467925402       -0.6231716048
 H        -4.3310620420       -0.6782487023        0.5695690827
 H        -5.7293141420        2.7062144017       -0.6761015820
 H        -7.0061396496        3.2973448189        0.4953561798
 H        -8.0121061603        2.0803507811        1.6223695936
 H        -7.2438478934        2.1885316304        3.1968704963
 H        -8.0305461537        0.6991231604        2.5507045023
 H        -4.5970082583        0.9766403722        3.4550335282
 H        -5.9390826110       -0.1156763403        3.6124682779
 H        -4.5918444210       -0.3717288574        2.4895338595
 H        -5.9597583501        5.2556438678       -0.7062943196
 H        -5.3015582693        5.2812141481        0.8651171038
 H        -0.7573472755        2.9624979733       -1.1606536892
 H        -1.0807402193        4.3689298879       -2.2218587091
 H         0.3068863938        4.3417867527       -1.1298568674
 H        -3.6968180687        7.1249530250       -0.8731397880
 H        -2.6138699756        6.4017177023       -1.9991924331
 H        -2.0052245531        7.3222614847       -0.6736241801
 H        -3.8808883790        6.3663219663        1.6368718863
 H        -3.1688594376        4.9011963029        2.0665358941
 H        -2.1639219261        6.3066938502        2.0435394516
 Na        0.9435646942        2.7449125119        1.3372565977
