155

 C         5.5820950026        3.9565051757        0.2233103007
 C         4.1785765696        3.9903748279        0.8186659896
 C         3.7662263387        4.9713906975        1.9696503568
 C         3.1597928996        4.0183701925        3.2613196399
 C         4.1509801784        3.7209739330        4.4762447070
 C         4.9304491350        5.8967133738        2.4241951344
 C         2.5164017512        5.7793041696        1.5229979047
 O         3.3374076601        3.2286586835        0.4286362826
 O         2.0972805344        3.4958640315        3.1311180370
 C         3.6886210396        2.3895211752        5.1322080661
 C         4.8363511507        1.3929569753        5.1398199076
 C         4.5133779602       -0.0540724509        5.6552948699
 C         3.2836295766       -0.7064846156        4.9003379730
 C         3.6235585551       -1.3154639871        3.5494713412
 O         5.9116723566        1.7493321748        4.6874801769
 O         2.1537609239       -0.7554006144        5.3052135058
 C         5.7695037756       -0.9570384437        5.4634364291
 C         4.0787492820       -0.0862244680        7.1416520441
 C         2.4763314035       -1.6998472864        2.5709574250
 C         1.4597918676       -0.5700475189        2.2504749880
 C         0.0501347540       -0.9128484997        1.7418871618
 C        -0.0168335220       -0.3228732639        0.2331057617
 C        -0.4750859738       -1.2496901397       -0.9344763777
 C        -0.3117950514       -2.4527104330        1.7237607294
 C        -1.0497485586       -0.1021457966        2.4798402178
 O         1.6800534301        0.6079487259        2.4190402900
 O         0.2767692572        0.8280067828       -0.0456172581
 C         0.7997912741       -1.1418021124       -1.9600984649
 C         2.0892334393       -1.4532031446       -1.2071357508
 C         2.9524597288       -2.6127691447       -1.7445451232
 C         2.0278917418       -3.7922265005       -1.9225410011
 C         2.6367803584       -4.9564928348       -2.7488064670
 O         2.2552778749       -0.9428564972       -0.1302024774
 O         0.9579851028       -3.9797553646       -1.3370963527
 C         3.7971741117       -2.1850830995       -2.9869534767
 C         3.8964999196       -3.0566886538       -0.6652842958
 C         1.6018908461       -5.6237495911       -3.6896476238
 C         1.3634131753       -4.6874394992       -4.9672296928
 C         0.3052173216       -5.1283812206       -6.0137789944
 C        -1.2067220812       -4.8171280138       -5.3347868610
 C        -1.9717764581       -3.5527238322       -5.7427008684
 C         0.6060611438       -4.2326585141       -7.2366549790
 C         0.3711112161       -6.6921128069       -6.3438931387
 O         1.8878365588       -3.5640712746       -4.9427595021
 O        -1.6119610820       -5.6732776765       -4.5383009347
 C        -3.3572981531       -3.4553938179       -5.0101300398
 C        -3.2290339834       -2.7751761722       -3.6073925094
 C        -4.0824385339       -3.4651218600       -2.4151987769
 C        -4.0070437340       -2.4823702353       -1.1879514679
 C        -4.5735565416       -1.0385118135       -1.3180556373
 O        -2.5385732186       -1.7886210305       -3.4172973550
 O        -3.5917480872       -2.8862923868       -0.1178465287
 C        -5.5405018235       -3.7688749660       -2.7832485303
 C        -3.4654728969       -4.8118077929       -1.9422718073
 C        -4.8017307733       -0.2967881473        0.0685003134
 C        -6.2407847939        0.1780367617        0.2504067003
 C        -6.4729359565        1.1691541919        1.5331857440
 C        -5.7497575584        2.5013386643        1.2468794403
 C        -6.3339952752        3.3327075483        0.0269689096
 C        -8.0049709186        1.5387090565        1.6288323360
 C        -5.9598346698        0.5682528834        2.8187402950
 O        -7.2042903712       -0.1451297023       -0.4257417717
 O        -4.7972042601        2.8395172820        1.9496647240
 C        -5.3108205747        4.3240920737       -0.6129397636
 C        -3.9061922337        3.8084566077       -0.5769518194
 C        -2.6597668642        4.8256673288       -0.1163383622
 C        -1.3059259177        4.0211411327       -0.3172990731
 C        -1.0313916785        3.5692087640       -1.8079824020
 O        -3.7269008369        2.6639711718       -0.9472410292
 O        -0.5451140424        3.8632574028        0.6023504816
 C        -2.7328976398        6.0068080511       -1.0592744718
 C        -2.7008448610        5.3016325317        1.3792598506
 H         5.8704256846        2.9671191328       -0.2199436175
 H         5.7261156937        4.9135519254       -0.2926370515
 H         6.1217645222        3.9640717592        1.1984215493
 H         5.2006420682        3.6605271787        4.0585671553
 H         4.2157812397        4.4654280907        5.2630000325
 H         5.8138283706        5.3514448932        2.7184377921
 H         4.6284738856        6.5215521128        3.2230168539
 H         5.2112115515        6.6183530145        1.6382336599
 H         1.7762070793        5.1540608166        0.8873532941
 H         2.0330513778        6.0701351354        2.4218795850
 H         2.7429890220        6.6709182442        0.8808066246
 H         3.2780933316        2.6383244640        6.1483950979
 H         2.9001872065        2.0192884820        4.5057152707
 H         4.2752194778       -0.6316257570        3.0315917120
 H         4.1817264412       -2.2395740920        3.7640645200
 H         5.4647860999       -1.9782365674        5.3066629849
 H         6.3479576252       -0.9779681254        6.3669435637
 H         6.3923103569       -0.6539108949        4.6450888950
 H         3.2271242033        0.6015766854        7.2754209685
 H         3.8906042318       -1.1466357442        7.3440447364
 H         4.7803919045        0.0930619704        7.9309771176
 H         1.8706387485       -2.5965426727        2.8095925347
 H         2.9873303705       -2.0144931990        1.6114444474
 H        -0.5233738973       -2.3291585087       -0.6036094132
 H        -1.3560526629       -0.8941579786       -1.4511100082
 H        -1.2221726378       -2.7407604921        1.1557881448
 H        -0.5192825493       -2.8716754179        2.6959498837
 H         0.5338653595       -3.1657854908        1.3203276870
 H        -2.0379257228       -0.5233490331        2.1517066210
 H        -1.0005067395       -0.2043709914        3.6186443649
 H        -1.0712493175        0.9278042244        2.2282489232
 H         0.6899231139       -1.7845166692       -2.8902255554
 H         0.8705222714       -0.0147067481       -2.2795144637
 H         3.5681791129       -4.5737174878       -3.2437488850
 H         2.9847792685       -5.6607199837       -1.9780836489
 H         3.2224856682       -1.6016878521       -3.6837847986
 H         4.2581411902       -2.9358075725       -3.5404009068
 H         4.5251556517       -1.4655873471       -2.6589540702
 H         4.7422510104       -3.4908886443       -1.1411653939
 H         4.2903187111       -2.1443218391       -0.2987877283
 H         3.4513273580       -3.5930451155        0.0437355007
 H         0.6740355200       -5.7473123787       -3.1033834465
 H         1.7924276686       -6.7096656535       -4.0478548176
 H        -1.4548550073       -2.6106950159       -5.4870198018
 H        -2.1145479895       -3.6194463808       -6.8216278382
 H         0.6441584238       -3.1369649356       -6.9507993646
 H         0.0369776990       -4.3198941664       -8.1171482101
 H         1.6364441671       -4.3268476515       -7.5916791299
 H        -0.1764160074       -6.8580559402       -7.2703685265
 H         1.4059865130       -6.9643568303       -6.5733894353
 H        -0.0879519124       -7.3178624488       -5.4732753738
 H        -3.9561333211       -2.8666034693       -5.6935127898
 H        -3.8501688513       -4.4249195411       -4.9013266036
 H        -4.0051815914       -0.4226815201       -1.9383206109
 H        -5.5875267334       -1.0438017025       -1.8312874829
 H        -5.9623560092       -2.9549272959       -3.4332722978
 H        -6.0374469165       -4.0149898128       -1.8573855261
 H        -5.5554537441       -4.6177391860       -3.3663003330
 H        -2.6423191597       -4.4648078388       -1.3756869375
 H        -4.2027637613       -5.3690720736       -1.4344781146
 H        -3.1390003450       -5.4248446656       -2.7797975102
 H        -4.1918281912        0.6072422465        0.1275097821
 H        -4.4737152490       -0.9887716658        0.8536145424
 H        -6.5709008842        2.4502357160       -0.5532679590
 H        -7.2005555771        3.8922112259        0.4456215155
 H        -8.4022397089        1.4353682857        0.6481850451
 H        -8.1632900200        2.5946565143        1.9755554426
 H        -8.5250093996        0.8914702676        2.3365120735
 H        -5.8000849284        1.2730994064        3.6202929426
 H        -6.6709604497       -0.2270868131        3.0916239375
 H        -5.0696447504       -0.0504373434        2.6598005387
 H        -5.6055489396        4.5934177793       -1.6477609974
 H        -5.4199112109        5.3013022370       -0.0282149556
 H        -1.8866988718        3.1821596677       -2.3225331597
 H        -0.7982345867        4.3581688653       -2.4754079934
 H        -0.1621925254        2.8421618264       -1.8205112964
 H        -3.5205143688        6.6746690240       -0.7033442674
 H        -2.8506523683        5.8076979040       -2.1620182544
 H        -1.7649547045        6.5512518097       -0.8685118987
 H        -3.4232887316        5.9890027871        1.7120095507
 H        -2.6797040469        4.4158107524        1.9589910275
 H        -1.6991765363        5.7214695034        1.6134726104
 Na        1.2214455934        2.4917113136        1.4347286685
