155

 C         5.2067171110        5.1529900022        1.2419779162
 C         3.6873689307        4.6574031291        1.6203140151
 C         2.9169684043        5.3245824341        2.7361764051
 C         2.5857879450        4.1369055590        3.6676748237
 C         3.6517649636        3.4455890195        4.4962462154
 C         3.7562135811        6.4806169792        3.3003452578
 C         1.6609698167        5.8040488173        2.0681804679
 O         3.3264044770        3.6581726456        0.9539086329
 O         1.5247146336        3.5531986573        3.6562106469
 C         3.3589196077        2.1529314645        5.1691631425
 C         4.5851512311        1.2831337820        5.2100816355
 C         4.4273628109       -0.1435964389        6.0767808791
 C         3.5124476454       -0.9542526378        5.1960449255
 C         3.9414744133       -1.3594812951        3.7255257263
 O         5.6284062847        1.6717996019        4.7602898193
 O         2.3707709926       -1.2144283033        5.5680345379
 C         5.7610451759       -0.6854149203        6.3217461630
 C         3.7314824612        0.0855132793        7.5011563739
 C         2.6740758104       -1.8263718062        2.9299190239
 C         1.7616241948       -0.6484635145        2.5162922598
 C         0.3862958090       -1.0640254241        1.7572247932
 C         0.4636025486       -0.4552978894        0.3127483422
 C         0.5416627416       -1.3511612544       -0.8807310906
 C         0.1113706415       -2.6364300008        1.6537060397
 C        -0.8451322276       -0.3279520988        2.3862065170
 O         2.0651389669        0.5336764563        2.6069058995
 O         0.4936323363        0.7591927145        0.1489935016
 C         1.4952440545       -0.9584751036       -1.9906236325
 C         2.9620988877       -1.3588364152       -1.5889041880
 C         3.6736734069       -2.4735014046       -2.4569025443
 C         2.8219857612       -3.7326983365       -2.3011700617
 C         2.7449544468       -4.9400592743       -3.3526459639
 O         3.4079704447       -0.8455837622       -0.5671743276
 O         2.2730631555       -3.9689375254       -1.2594484599
 C         3.9088599008       -1.9317125635       -3.8724365910
 C         5.0629270283       -2.7181581418       -1.6771844687
 C         1.2338371885       -5.1701718722       -3.7892843801
 C         0.8433325381       -4.3981105898       -5.1280950144
 C        -0.0310124055       -5.0232495342       -6.2465363122
 C        -1.5436963782       -4.9435480024       -5.6790034698
 C        -2.1849342887       -3.5867530924       -5.6334392611
 C         0.1820159436       -4.2117282575       -7.5051136307
 C         0.3577825960       -6.4886959718       -6.4213718264
 O         1.4148073712       -3.2819550252       -5.2396501992
 O        -2.1738368176       -5.8464223234       -5.1841337888
 C        -3.3402087980       -3.4956734027       -4.6147716524
 C        -2.9470865086       -3.0844753043       -3.1994744599
 C        -3.9812301955       -3.3489136540       -2.0288739387
 C        -3.6235333031       -2.3039406682       -0.8513626698
 C        -4.1355722363       -0.8032364216       -0.9286436839
 O        -1.8130896964       -2.7032718979       -2.9835717491
 O        -2.9502842770       -2.5913217628        0.1086169461
 C        -5.3646196183       -3.0752579187       -2.5080701765
 C        -3.8315797638       -4.7883803959       -1.5795149611
 C        -5.0378277892       -0.4738841038        0.2748816522
 C        -6.4647453157       -0.1424357819       -0.0795956374
 C        -7.3229668016        0.8584777337        0.7751179248
 C        -6.6086191100        2.2144945419        0.8947369731
 C        -6.0076806220        2.9102063292       -0.3954727712
 C        -8.7407213137        1.0998446768        0.0659693256
 C        -7.5393845085        0.3047390068        2.2167035971
 O        -7.0271519090       -0.7879592667       -1.0123653808
 O        -6.5987312624        2.7100494273        2.0158833224
 C        -5.0258387211        4.0252683064        0.0241725769
 C        -3.6243570995        3.6962412259       -0.5571226778
 C        -2.4891171670        4.7828419057       -0.6642303029
 C        -1.1674388840        4.0000351923       -0.5603875051
 C        -0.5061650418        3.2746187509       -1.7007655036
 O        -3.4112273693        2.5375305831       -0.8299171738
 O        -0.6198308780        3.8994368849        0.5676867197
 C        -2.7315902488        5.6412689919       -1.9032285537
 C        -2.3744508945        5.8550039579        0.5284355910
 H         5.6335454782        4.4262957849        0.5768267928
 H         5.1488165023        6.0351581995        0.6358364671
 H         5.7190756423        5.2652792529        2.1957610231
 H         4.4163109388        3.3265421358        3.6950637046
 H         3.9978926651        4.1791649478        5.1899434897
 H         4.6596253569        6.1014322059        3.7761335241
 H         3.1208455534        7.0565075856        4.0021809170
 H         4.0007531914        7.0678693144        2.4597953003
 H         1.0268247065        5.1139510722        1.6468305568
 H         1.0200734861        6.3835288409        2.7170094187
 H         1.9435281964        6.4111696069        1.2889141620
 H         3.0918626919        2.3460574749        6.2034380594
 H         2.4921665052        1.5832718826        4.7955942083
 H         4.4245735866       -0.4867702662        3.2623454702
 H         4.7192071755       -2.1570210090        3.6501546559
 H         5.9766003943       -1.6063901135        5.8250433093
 H         5.8555779883       -0.8279247053        7.4220074938
 H         6.5343261413       -0.0141265563        5.9362213717
 H         2.7387101185       -0.2242378120        7.4957760796
 H         4.2842227704       -0.3802698802        8.2728174667
 H         3.6608224166        1.1113170215        7.7903233005
 H         2.0605811775       -2.4943257822        3.4953397308
 H         2.9984008246       -2.3533605047        2.0240545213
 H         0.6545443376       -2.3803380652       -0.4813240767
 H        -0.5141927809       -1.3563547747       -1.2140163309
 H        -0.8669564253       -2.6905772402        1.2025634040
 H         0.1575288518       -3.0509914188        2.6922427711
 H         0.8551451158       -3.1487172318        1.2132173779
 H        -1.5919244409       -0.5021207173        1.6516773422
 H        -1.0919994826       -0.6387690610        3.3554650866
 H        -0.5239844643        0.7661980037        2.4834338321
 H         1.1927459185       -1.4234355304       -2.9264043923
 H         1.5062398688        0.0504253596       -2.1146494651
 H         3.3236527502       -4.8739813509       -4.2455009830
 H         3.1228086729       -5.7254442456       -2.6650692662
 H         3.4728470606       -2.6857354320       -4.4851477179
 H         4.9677308628       -1.9752356334       -4.1674654149
 H         3.4019064457       -0.9728589222       -3.9667650120
 H         5.6215269301       -3.6381591252       -2.0522964666
 H         5.6320981461       -1.8052430418       -1.8566761242
 H         4.8218674616       -2.7579261170       -0.5534796003
 H         0.5219116273       -4.8681960538       -3.0654762386
 H         1.1511842619       -6.2265838734       -3.9689308564
 H        -1.3911622981       -2.8995850216       -5.5251738894
 H        -2.5738625703       -3.3237591163       -6.6840245402
 H        -0.4804958017       -3.3562358234       -7.5327535388
 H         0.0090330067       -4.6717192820       -8.5783860952
 H         1.1151416171       -3.7091926807       -7.7438345336
 H         0.0270285334       -6.9647942009       -7.3827272195
 H         1.4159552085       -6.7197255640       -6.2811117690
 H        -0.1627321986       -7.0884970373       -5.7293358814
 H        -4.1676732204       -2.9416832121       -4.9880566836
 H        -3.6808828590       -4.5577938341       -4.6192022508
 H        -3.2296505626       -0.2342874022       -0.8196248677
 H        -4.7434641016       -0.4983430957       -1.8079704570
 H        -5.3520187204       -2.3023324866       -3.2114859734
 H        -6.0308404416       -2.7322946556       -1.6814451216
 H        -5.8872160917       -3.9892290692       -3.1086814105
 H        -3.0045588562       -4.7789804711       -0.8479917876
 H        -4.6469016696       -5.0322741568       -0.8965662446
 H        -3.6501979830       -5.4051070602       -2.4386934602
 H        -4.5683354999        0.4025641091        0.7683308999
 H        -4.9962663606       -1.2486480666        1.0736923438
 H        -5.4079865853        2.3049515510       -1.0772840516
 H        -6.6884506609        3.3170468201       -1.0610105721
 H        -8.6234589164        1.9033065044       -0.6749301830
 H        -9.3909329276        1.3728529257        0.8355822516
 H        -9.0664201155        0.2219518887       -0.5348249494
 H        -7.5132379839        1.1260651118        2.9048703444
 H        -8.4447749297       -0.2438135914        2.2180700120
 H        -6.7288973875       -0.4011043295        2.4235765534
 H        -5.2757366815        4.9103689902       -0.4634493579
 H        -5.0211147928        4.2225794821        1.0859183305
 H         0.0503820413        2.3235264409       -1.3885462226
 H        -1.0529779715        3.1811424310       -2.6752070852
 H         0.3453198756        3.8472821543       -2.0035339490
 H        -3.7937472998        6.0013826581       -1.7161917312
 H        -2.8887694573        4.9186810424       -2.7072147244
 H        -2.0590504051        6.4516052169       -2.0691217720
 H        -3.3380909656        6.3741634218        0.6673621717
 H        -2.1296896425        5.2574546805        1.4158645856
 H        -1.6053582489        6.4821669765        0.2504976319
 Na        1.3089034165        2.4295915471        1.5417470304
