155

 C         4.5923009966        5.5071312975        1.0827675298
 C         3.4639874095        4.6872106413        1.7981915682
 C         2.7851362128        5.2300333056        3.0631797217
 C         2.4608011415        4.1334229909        4.0142123730
 C         3.5143950056        3.7008921022        5.0055727443
 C         3.7128739461        6.3191236999        3.6758080678
 C         1.5624736309        5.9524331816        2.4205647659
 O         3.0439223918        3.6837178192        1.2679988886
 O         1.4426930492        3.5317752095        3.9077001624
 C         3.2700390250        2.3761422295        5.6657832849
 C         4.5597563642        1.3655501986        5.5576236606
 C         4.3295361727       -0.1754708477        6.0821083993
 C         3.3215085834       -0.9015422102        5.1028661840
 C         3.8682532708       -0.9115065521        3.7124004389
 O         5.4950905288        1.7526627604        4.9149454917
 O         2.2717424846       -1.3864062398        5.4366829738
 C         5.8003231574       -0.8495822526        6.1487850867
 C         3.5859217942       -0.0689365651        7.4434821035
 C         2.8755951023       -1.3572083246        2.6308326682
 C         1.7324038803       -0.4018395941        2.5104551917
 C         0.5244694886       -0.8369977474        1.6334968737
 C         0.8760392654       -0.4381265813        0.1509026616
 C         0.5721623729       -1.4338039519       -0.9747512637
 C         0.1924517140       -2.2770241038        1.7705645871
 C        -0.7704436202       -0.0481888052        2.0985442127
 O         1.7748573921        0.6969189091        3.0058451346
 O         1.3938021743        0.6558282887        0.0265012805
 C         1.5156141897       -1.4039712845       -2.1241715792
 C         2.9806016084       -1.6442313305       -1.6468567109
 C         3.8478061944       -2.4938118642       -2.6517336682
 C         3.2250834645       -3.9160875629       -2.5560933851
 C         3.0950663983       -4.9877707627       -3.7552560219
 O         3.3604576233       -1.4451548815       -0.5200759724
 O         2.7444706368       -4.2450111310       -1.5188420507
 C         3.8026913772       -1.9007599543       -4.1456200273
 C         5.3386267389       -2.5388431383       -2.1489332240
 C         1.5704604726       -5.2609352405       -4.0045517861
 C         0.9238481558       -4.3527835069       -5.0377352997
 C        -0.0887617289       -4.9443489463       -6.1311314026
 C        -1.5310278909       -4.8756979807       -5.5009064409
 C        -2.2639809821       -3.5441096645       -5.5312883220
 C        -0.1664190048       -4.0519476504       -7.3905194251
 C         0.3276098121       -6.3637926527       -6.5858194811
 O         1.0377540215       -3.1052897370       -5.0316166998
 O        -2.0414164145       -5.8563523271       -4.9893715085
 C        -3.4041074979       -3.3636199104       -4.4841785023
 C        -2.9441888273       -3.0924647384       -3.0634292316
 C        -3.9055777199       -3.2168267570       -1.8336563939
 C        -3.4704160472       -2.1850052996       -0.6535716272
 C        -3.9432096494       -0.6915750802       -0.5922547467
 O        -1.7968314591       -2.6927524901       -2.9106466716
 O        -2.7680770668       -2.5611126044        0.2182008597
 C        -5.3377229872       -3.1222767832       -2.3139365348
 C        -3.6268106082       -4.7261910190       -1.2729285131
 C        -5.1504267974       -0.4084760791        0.3583158453
 C        -6.5219602046       -0.1378803756       -0.3129755773
 C        -7.5385673695        0.8041520867        0.3448036562
 C        -6.6569058701        2.0836633544        0.7297797007
 C        -6.2811966655        2.9769914422       -0.4626988557
 C        -8.7538842804        1.2188654332       -0.4838026279
 C        -7.8593902729        0.1239665099        1.7085512982
 O        -6.8329600657       -0.6922233714       -1.3612454041
 O        -6.3372947916        2.3687060641        1.9007225625
 C        -5.0311717860        3.9222970090       -0.1041668358
 C        -3.6178623797        3.4570828648       -0.5251126441
 C        -2.4814893217        4.5356999023       -0.6748132809
 C        -1.0885673432        3.8638801990       -0.5324718751
 C        -0.2312292838        3.6056760745       -1.7121059834
 O        -3.4298491889        2.3480344008       -0.8974780289
 O        -0.7251700397        3.5732971112        0.6094168283
 C        -2.8785446916        5.2721077593       -2.0500192087
 C        -2.5149013162        5.6437648629        0.4243993948
 H         5.4097102173        4.7630921485        0.9837130682
 H         4.2233838447        5.5336815308        0.0101453151
 H         4.9260851275        6.4643427077        1.5274249179
 H         4.4148072635        3.6394680685        4.3798754022
 H         3.5889296196        4.5315757085        5.6606622178
 H         4.6409107135        5.8396133665        3.9595227550
 H         3.0928925571        6.6929973579        4.5018591079
 H         3.8880149202        7.1536666378        3.0728377029
 H         1.1232539907        5.3054583132        1.6520449609
 H         0.7501697501        6.1371644681        3.0851195368
 H         1.7772750256        6.8079265532        1.8535134344
 H         3.0607829320        2.5855251212        6.7229467725
 H         2.3640336662        1.8746071032        5.1609698805
 H         4.3884300674        0.0262701267        3.5024013097
 H         4.7078115585       -1.6425157839        3.7950407853
 H         5.9236787670       -1.7538931782        5.5531481815
 H         5.8830959418       -1.1259149630        7.1652199794
 H         6.5654024346       -0.0853158308        5.9625187060
 H         2.5996126477        0.1908578753        7.2290772913
 H         3.7843904993       -0.8414890177        8.1757320297
 H         3.9449557670        0.8534239181        7.9288268496
 H         2.5592249052       -2.3647012517        2.8399633837
 H         3.3164557813       -1.2756358238        1.6048444830
 H         0.3253859441       -2.4774258615       -0.5133304331
 H        -0.4406285730       -1.2018729697       -1.2629155368
 H        -0.8387259868       -2.3608280577        1.6011034250
 H         0.3894021360       -2.6192401342        2.7939919530
 H         0.7710037539       -2.8198174292        1.0748771394
 H        -1.6338634425       -0.6455885696        1.7409508106
 H        -0.7647369087        0.0897203516        3.1891496885
 H        -0.7518460983        0.9029551357        1.5257422333
 H         1.1981485108       -2.2382021660       -2.7493876788
 H         1.5350537130       -0.5044025392       -2.5928264479
 H         3.7398707911       -4.7809818539       -4.5757821194
 H         3.4752824744       -5.9263918137       -3.2908458447
 H         4.7997274538       -1.9419492247       -4.4772991984
 H         3.5379717440       -0.8654037500       -4.0211194228
 H         3.0809502283       -2.3194425909       -4.7801709173
 H         6.1434952643       -2.8642780852       -2.8309534509
 H         5.5773598004       -1.5146054911       -2.0781463686
 H         5.3421086042       -2.9410997200       -1.1940128541
 H         1.1178160344       -5.1812260583       -2.9995379118
 H         1.4993688236       -6.2801219811       -4.3772614552
 H        -1.6226599178       -2.7659866239       -5.3642386239
 H        -2.6195773776       -3.3750745593       -6.5843420489
 H         0.2724563365       -3.0113171459       -7.3179376545
 H        -1.1336959346       -3.9777763890       -7.8661486423
 H         0.4056798280       -4.4341136060       -8.2167147190
 H        -0.4231506117       -6.8761891264       -7.2607145866
 H         1.1696903431       -6.3437414216       -7.3227178557
 H         0.6264454697       -7.0643014794       -5.8598944476
 H        -3.8992363764       -2.4775159081       -4.7761451939
 H        -4.1626496877       -4.1576918857       -4.4809666279
 H        -3.0404720814       -0.0720497995       -0.3338809226
 H        -4.0692983300       -0.4163579271       -1.6118751295
 H        -5.6245873212       -2.2352955156       -2.8601715261
 H        -6.0228794767       -3.4506679882       -1.5369416659
 H        -5.6276508729       -3.9268193810       -3.0164852458
 H        -2.6083212334       -5.0207052475       -1.4672467849
 H        -3.8663702847       -4.7465407686       -0.1968173365
 H        -4.2850504893       -5.3363320229       -1.8016890158
 H        -4.7648742422        0.4558644668        0.9360245905
 H        -5.1684842315       -1.2632257657        1.0639202887
 H        -5.9453463229        2.2683038794       -1.2600163488
 H        -6.9496530376        3.5985763202       -0.9087699929
 H        -8.4931771855        1.9156543201       -1.3064007179
 H        -9.4087402339        1.7098281551        0.1861481040
 H        -9.2331807104        0.2903736909       -0.8438232811
 H        -8.8104503299        0.4595869728        2.0475778867
 H        -7.6857445247       -0.9224001787        1.6157527441
 H        -7.1105864700        0.4362439363        2.4337820253
 H        -5.0593419780        4.8805356439       -0.5738824223
 H        -5.1524932237        4.1395785181        0.9738583674
 H         0.7657661563        3.2971399189       -1.4415695181
 H        -0.6587587814        2.8559451250       -2.4306766841
 H        -0.0504758906        4.4787925602       -2.3639753678
 H        -3.8827100322        5.7332516304       -1.8131279544
 H        -2.9563384753        4.6607075395       -2.9523335532
 H        -2.2599729029        6.1514190134       -2.1133505830
 H        -3.1938312461        6.4254913996        0.1900383812
 H        -2.4563935031        5.2238852757        1.4001912854
 H        -1.5613707605        6.0495428660        0.2954437389
 Na        1.0974470089        2.3367308147        1.5954243337
