155

 C         4.2755637905        5.8438751777        1.8751198687
 C         3.0298530770        5.1296753651        2.3391687460
 C         2.4255624537        5.5650929562        3.7034744091
 C         2.0525069942        4.1821549674        4.4142489640
 C         2.6827107020        3.8868932429        5.8375610532
 C         3.2915384584        6.5681016232        4.4656485110
 C         1.0609736570        6.1951178085        3.3127034052
 O         2.2907926315        4.5618862335        1.5583524339
 O         1.2964900257        3.4048590334        3.8550516458
 C         2.5869068486        2.3775412513        6.2318171399
 C         3.9357130768        1.7496320693        5.8674887493
 C         4.1643690868        0.2613304906        6.2459554919
 C         3.4673537269       -0.5498289203        5.1525335741
 C         4.2013691784       -1.0194573807        3.8589477371
 O         4.7266899921        2.2577798987        5.0657841686
 O         2.2663990131       -0.6902018240        5.2575827083
 C         5.6821886489        0.0212479237        6.3584452268
 C         3.4762563093       -0.1058672810        7.6072308777
 C         3.2895869793       -1.7574795783        2.9336777168
 C         2.2722379115       -0.8244441579        2.2829305888
 C         1.0706234989       -1.5971034773        1.6667938184
 C         0.9382161023       -0.8378699324        0.1685596943
 C         0.6319969106       -1.6997387027       -1.0899418600
 C         1.1761843998       -3.1215454635        1.4885226659
 C        -0.2387754917       -1.1882099188        2.3833894460
 O         2.4008928706        0.4175532127        2.2213984469
 O         0.8593597023        0.3833406200        0.0533113887
 C         1.6849276601       -1.4256521220       -2.2042696329
 C         3.0503101245       -2.1103322151       -1.7758034382
 C         3.9061021937       -2.5847597086       -3.0509406718
 C         3.2312410037       -3.9460944270       -3.5253515371
 C         3.7837822403       -4.4985096343       -4.7603375310
 O         3.4071176753       -2.2036741565       -0.6248683425
 O         2.5817599374       -4.5874729000       -2.6946151150
 C         3.9626350016       -1.3758341367       -4.0213840295
 C         5.3749702133       -2.8844653168       -2.5126524175
 C         2.4832248759       -5.2560504952       -5.4926066939
 C         1.2833313481       -4.3230886739       -5.5134410542
 C         0.0986602178       -4.7609367506       -6.3442502581
 C        -1.0838344542       -4.6337798545       -5.1410674657
 C        -2.1826530863       -3.4651767463       -5.1621690317
 C        -0.1665652345       -3.9009303929       -7.6202259966
 C         0.1609833513       -6.3010437054       -6.8387363314
 O         1.3113151739       -3.2469339121       -4.9851866412
 O        -1.0681662901       -5.4446459031       -4.2702186237
 C        -3.1949188270       -3.8118934288       -4.0301474182
 C        -2.8999370359       -3.1444798086       -2.6792599675
 C        -3.2968172570       -3.7808597740       -1.2763380758
 C        -3.7849668975       -2.7035958611       -0.1841440819
 C        -4.4936803585       -1.4909587930       -0.8046620610
 O        -2.3550101433       -2.0605841975       -2.7403879839
 O        -3.5047340047       -2.8145999897        1.0238428357
 C        -4.4589604770       -4.9213653016       -1.5069646534
 C        -2.0852379383       -4.6451144498       -0.8613115812
 C        -5.5367646441       -0.6692446388        0.0416470873
 C        -6.5095702917        0.0734716557       -0.8900997266
 C        -7.5600089072        0.9786100822       -0.2647862625
 C        -6.6687419421        2.2306531943        0.1530341286
 C        -6.3247516905        3.2441683156       -0.8724767247
 C        -8.4346620760        1.5621728855       -1.4448057947
 C        -8.3352261861        0.4107347388        1.0040545773
 O        -6.3031689106        0.1486950210       -2.0973893571
 O        -6.3100964556        2.2802688734        1.2911286223
 C        -5.3897916039        4.3773753757       -0.5740109386
 C        -3.9164018544        3.7765464566       -0.5911614437
 C        -2.6140213941        4.7529441921       -0.4085670113
 C        -1.3296610310        3.8408092483       -0.1955835819
 C        -0.9555877778        2.9911005585       -1.3607839254
 O        -3.8154661909        2.6175112687       -0.9755528358
 O        -0.7529521242        3.7364252482        0.8721787610
 C        -2.3979215809        5.4334498759       -1.7751005035
 C        -2.9322575956        5.8277826432        0.6392541450
 H         4.9483014560        5.8369409635        2.7384122310
 H         4.7276779571        5.5027185079        0.9748636629
 H         4.0495299396        6.8908663227        1.7205951740
 H         3.6944400125        4.2793400346        5.8478199036
 H         2.0969052665        4.5269441756        6.5192769301
 H         4.2872306476        6.2499213841        4.7074849249
 H         2.8439666192        7.0201998979        5.3330678671
 H         3.4557995263        7.3864687440        3.7264763907
 H         0.5199141831        5.5910087407        2.6878534103
 H         0.4217519034        6.5658301198        4.1055850693
 H         1.2787371576        7.0661002594        2.6946633608
 H         2.4140006939        2.3079686737        7.2512534565
 H         1.8371557865        1.6835862115        5.7445787382
 H         4.5629021664       -0.1828907158        3.2701216608
 H         5.0787546441       -1.6139661926        4.0839580525
 H         6.0706402385       -0.5715721302        5.5054464728
 H         5.8961299660       -0.4274767974        7.3102908242
 H         6.2035011150        0.9513906357        6.1910243190
 H         2.4527634329       -0.4318927840        7.4577370619
 H         4.1532085667       -0.6191421789        8.1879273505
 H         3.5222794730        0.8529025061        8.0377869481
 H         2.7979489632       -2.5878470669        3.4422565248
 H         3.8884757663       -2.1530987248        2.0809478989
 H         0.6722802062       -2.6868664606       -0.8024156225
 H        -0.4031432544       -1.4994975754       -1.4994535965
 H         0.1808858469       -3.6288089799        1.2381036893
 H         1.5831330765       -3.6458922297        2.3280729321
 H         1.9004964376       -3.5040512749        0.7324935339
 H        -1.1236004752       -1.4999641889        1.7989404868
 H        -0.1532421202       -1.7192172458        3.3516602593
 H        -0.2253447220       -0.1522568174        2.6917465724
 H         1.2983940198       -1.6835950421       -3.1718183815
 H         1.9158741367       -0.2493637947       -2.3167489789
 H         4.0980817556       -3.6722052425       -5.3776914059
 H         4.5750262659       -5.2148628666       -4.5077607874
 H         4.4494511503       -1.7025122232       -4.9768847452
 H         4.6376479717       -0.5843440967       -3.7321306329
 H         2.9943605903       -0.9036467537       -4.2392440786
 H         5.9212845593       -3.4135919768       -3.2939183341
 H         6.0782735583       -2.0033607473       -2.3505560567
 H         5.4295481729       -3.5513577755       -1.5433597340
 H         2.2509400547       -6.0950999567       -4.7925516737
 H         2.7681124789       -5.7085563586       -6.4079547537
 H        -1.6402367325       -2.5355090724       -5.0126524526
 H        -2.9040634825       -3.4988639974       -6.0461364185
 H        -0.0115887149       -2.8724010775       -7.5232578887
 H        -1.2392919896       -4.1737833649       -8.0049108942
 H         0.4414031367       -4.2631315773       -8.3782063299
 H        -0.7880981097       -6.7474909005       -7.0101329127
 H         0.6883752952       -6.3363085428       -7.7952315434
 H         0.6605378222       -7.0252936025       -6.1071946356
 H        -4.1621169746       -3.4153685134       -4.3589862636
 H        -3.3006384133       -4.9370742944       -4.0344912880
 H        -3.6775377392       -0.8115546371       -1.1426401224
 H        -5.0791153482       -2.0466063474       -1.5995295699
 H        -5.3835162583       -4.5104894580       -1.6235027182
 H        -4.5026603499       -5.5256419539       -0.6244647296
 H        -4.2960798358       -5.6084234654       -2.4059323416
 H        -1.1690454985       -4.0831149116       -0.8542866214
 H        -2.1723023239       -5.0905734380        0.1271294429
 H        -1.8902149603       -5.3672303642       -1.6726294067
 H        -5.2677169824        0.0734455819        0.7626952470
 H        -6.0377678372       -1.3501853759        0.6691343697
 H        -6.0318530489        2.7783594408       -1.8642656002
 H        -7.3182873967        3.7313449039       -1.1113810197
 H        -8.0227317245        1.5900607224       -2.4315559965
 H        -8.8934026492        2.5261268984       -1.1713635891
 H        -9.2261768921        0.8914102626       -1.6145374337
 H        -8.7822559747        1.1345590041        1.6661026181
 H        -9.0347656363       -0.3864783295        0.7483817275
 H        -7.5317451746       -0.0321827922        1.5055802710
 H        -5.3919665829        5.1458277558       -1.3064202000
 H        -5.5310631585        4.7551605129        0.4710669212
 H        -0.1112763539        3.5348087506       -1.9054048274
 H        -0.4767433484        2.0592649921       -1.1244073765
 H        -1.7789325880        2.8061215713       -2.0491760444
 H        -3.2437646866        6.0296358448       -2.0704363525
 H        -2.1478947046        4.7305683731       -2.5849761483
 H        -1.6381489575        6.2560643390       -1.7441132821
 H        -3.7828647657        6.3673120057        0.2629778723
 H        -3.3636450466        5.4976113843        1.5634118604
 H        -2.0925294928        6.5779891411        0.8046937487
 Na        1.0488745760        2.1610494989        1.5502520736
