155

 C         4.0764038676        5.6053308752        2.0188123880
 C         2.8580484851        4.7301911286        2.2830786170
 C         1.8654983301        5.0126172183        3.5562069534
 C         1.5878221856        3.8461674490        4.5005635539
 C         1.8582827880        3.9082642621        5.9610254357
 C         2.2786304579        6.2390777311        4.3650974922
 C         0.5438352098        5.4715411439        2.8895984197
 O         2.6945320679        3.7915491513        1.5488522018
 O         1.2070043019        2.7710385583        4.0546038002
 C         2.2640948956        2.5414564406        6.5261802861
 C         3.6059037555        1.9700328881        5.9280372844
 C         4.2041702696        0.4805298090        6.2371241676
 C         3.5571636174       -0.2914385505        5.0637514499
 C         4.3926118651       -0.5866689877        3.8475763042
 O         4.4047503077        2.6467747931        5.3085280771
 O         2.4505965092       -0.8245171591        5.2031191515
 C         5.7636588906        0.4474072227        6.2526637180
 C         3.6052677531        0.0037333090        7.5993249684
 C         3.6262457998       -1.4951309805        2.8061988659
 C         2.4969095199       -0.7243464026        2.2742494240
 C         1.2551971979       -1.3341819849        1.6710903404
 C         0.8951524626       -0.7728583577        0.2614840212
 C         0.6478113769       -1.7188277255       -1.0226997774
 C         1.3641545804       -2.8265856241        1.5548500007
 C        -0.0206609352       -1.1537549189        2.6232592177
 O         2.5894659157        0.4980806581        2.4008051612
 O         0.7465899441        0.4087178135        0.0090380996
 C         1.6909136221       -1.3280760723       -2.0235108489
 C         3.1242736390       -1.7336857463       -1.5974997196
 C         3.9491257160       -2.4310738444       -2.7010211890
 C         3.2452870652       -3.6262859601       -3.3213566614
 C         3.5106203571       -3.8828270898       -4.8416894444
 O         3.4860625938       -1.5060455606       -0.4584749676
 O         2.5388819642       -4.3600331070       -2.6549340871
 C         4.3277319050       -1.4236919467       -3.7810001505
 C         5.3039150901       -3.0364429384       -2.1896866611
 C         2.4485864151       -4.9092010261       -5.4283547021
 C         1.4301397086       -4.1277752178       -6.2724568191
 C         0.0131790056       -4.6541549819       -6.5567712213
 C        -0.8677846038       -4.7998316017       -5.2065839965
 C        -2.1145608337       -3.9469283384       -5.0935408080
 C        -0.6350276022       -3.8128565974       -7.7251776286
 C         0.2682855219       -6.1778950488       -7.0560732813
 O         1.7636935292       -3.0621927231       -6.7557834321
 O        -0.4536236707       -5.5648052203       -4.3914012676
 C        -2.9004883789       -4.1915122195       -3.7853229711
 C        -2.5820476655       -3.4961974891       -2.5020891109
 C        -3.1430376729       -3.9664278401       -1.1078151402
 C        -4.1229152538       -2.7896540578       -0.5506230703
 C        -5.0971908547       -1.9871172800       -1.4384642676
 O        -1.7729736474       -2.5611916820       -2.3771859418
 O        -3.9754608942       -2.5568379795        0.6505780591
 C        -4.0409385765       -5.2714340601       -1.1357162743
 C        -2.0078699210       -4.0492480008       -0.1161020683
 C        -5.7097514991       -0.8630212100       -0.6372106657
 C        -6.5310155734        0.1621137018       -1.3260238728
 C        -7.4011316690        1.1356665561       -0.4574011853
 C        -6.5858450240        2.5391407303       -0.0001291891
 C        -6.2442537508        3.4984150084       -1.1018200646
 C        -8.7171054962        1.7041634742       -1.2074125802
 C        -7.8848202419        0.3976720169        0.8791962567
 O        -6.4333398832        0.3840056511       -2.4876767054
 O        -6.3623042157        2.7910738909        1.1543766832
 C        -5.2450188380        4.4926636909       -0.6675038736
 C        -3.8874482839        3.7230883043       -0.4839551948
 C        -2.5510917137        4.5151248364       -0.0827705325
 C        -1.3295274436        3.5819418861       -0.0932450046
 C        -0.9409329301        2.8822497278       -1.4257254446
 O        -3.8176001386        2.5431208134       -0.8000548453
 O        -0.6808196390        3.4032276514        0.9447991883
 C        -2.3092790077        5.4692601702       -1.3235018199
 C        -2.7353552634        5.2766868946        1.2667400732
 H         4.8323983899        5.3279686801        2.7067457719
 H         4.6705577421        5.3625600597        1.1253877929
 H         3.7969751981        6.5949430540        2.1595549089
 H         2.5763385786        4.7272430765        6.1977895467
 H         0.9713991416        4.2495431451        6.4419657866
 H         3.2409498625        6.2052696775        4.8874693293
 H         1.5022509108        6.5449821168        5.0882421743
 H         2.3484814696        7.1133501629        3.7754844322
 H         0.2172432896        4.6352987453        2.2767698040
 H        -0.2762115630        5.6780014585        3.5690353274
 H         0.7584287109        6.3148214349        2.1620876587
 H         2.4331878205        2.6310222289        7.6564482080
 H         1.5225291424        1.7238820318        6.5268073831
 H         4.6908541602        0.3718882006        3.4132136190
 H         5.3087834893       -1.0881191886        4.1414702990
 H         6.2408651828        1.3491601263        5.7633964423
 H         6.2360664907       -0.3588858659        5.7547436724
 H         6.0819713206        0.3300083111        7.3320269474
 H         2.7770397062       -0.6495427578        7.1981957869
 H         4.2877357760       -0.6789000868        8.1897767430
 H         3.2739051606        0.8761356800        8.1693711438
 H         3.3134869199       -2.5139772135        3.1478013312
 H         4.2939014934       -1.7848755221        1.9533105503
 H         0.7575686282       -2.8300476574       -0.7760732767
 H        -0.3612054497       -1.5108058084       -1.3715515524
 H         0.6014332192       -3.4104661150        1.1737804388
 H         1.5171433873       -3.3275470369        2.5058286445
 H         2.2244676617       -3.1371450764        0.8684029259
 H        -0.7414182116       -2.0021494168        2.5995713049
 H         0.3945519239       -1.0497072721        3.6371877540
 H        -0.5755326138       -0.2727473740        2.4548097901
 H         1.5420979212       -1.5364223427       -3.0657868046
 H         1.5767535711       -0.2740662058       -2.0770208109
 H         3.1668202875       -3.0410081633       -5.4327871727
 H         4.5806859202       -4.1272104886       -4.8304391427
 H         5.2609456265       -1.7055068101       -4.2891503175
 H         4.2850896638       -0.3299469743       -3.4645976059
 H         3.6035968522       -1.4311326395       -4.6028109487
 H         5.8850101741       -3.4710352323       -2.9320533775
 H         5.9721751205       -2.2485033340       -1.7607995842
 H         5.1394392972       -3.7767318143       -1.3958988508
 H         1.9090062105       -5.4469925209       -4.6307789499
 H         2.8945631960       -5.7629596261       -6.0482399312
 H        -1.8372615439       -2.9135096443       -5.2442994504
 H        -2.8059081728       -4.2891065708       -5.8778157624
 H        -0.4829674715       -2.8550652268       -7.3986562948
 H        -1.7281133506       -4.0905560224       -7.8007658989
 H         0.0247570149       -4.0078961168       -8.5829671349
 H        -0.7395609327       -6.6649267946       -7.0163132205
 H         0.5149752154       -6.2040227425       -8.1177198617
 H         1.0179548935       -6.6558505626       -6.5107935697
 H        -4.0293550819       -4.1244739563       -3.9455015408
 H        -2.7581788424       -5.2813267431       -3.6069448974
 H        -4.4499687438       -1.6084961071       -2.3082822469
 H        -5.8537314170       -2.6596733224       -1.8781865417
 H        -4.8673180527       -5.1758171624       -1.8521812081
 H        -4.3556828176       -5.4194109536       -0.0965019913
 H        -3.4804974635       -6.1909038306       -1.3746876623
 H        -1.6306476361       -3.0122501515        0.0417311287
 H        -2.2719965276       -4.4072928447        0.8889549844
 H        -1.1884207086       -4.6746358717       -0.3939822344
 H        -4.9384710415       -0.1836416053       -0.2193323953
 H        -6.1344705612       -1.2778680439        0.2890482551
 H        -6.1172903803        2.8684766865       -2.0059856165
 H        -7.1388696763        4.0470906714       -1.4418265756
 H        -8.6828029890        1.8588956204       -2.2916313462
 H        -9.0693217443        2.5908667419       -0.8268512638
 H        -9.5281299115        0.9906523895       -0.9737642654
 H        -8.3641617411        1.0957345536        1.5375426127
 H        -8.5920076116       -0.3215503487        0.5487465935
 H        -7.1985514540       -0.1824813347        1.4735813889
 H        -5.0473154078        5.2687888440       -1.4952892417
 H        -5.4921772439        4.9353199008        0.3285814504
 H        -1.5502082673        2.0782276875       -1.7026098246
 H        -0.8758720312        3.5032717663       -2.2870680369
 H         0.0175013801        2.3528673272       -1.2852843129
 H        -3.0025883055        6.3527129926       -1.4001176545
 H        -2.3897513685        5.0395565791       -2.3078790728
 H        -1.3161027434        5.8591131005       -1.3229339202
 H        -3.4784061134        6.0776582057        1.3330102921
 H        -2.7266415215        4.5943383543        2.1669118064
 H        -1.8324342812        5.8963817460        1.5176765821
 Na        1.0386378983        2.0465022340        1.7482150409
