155

 C         4.1329346943        5.3323822991        2.4490416776
 C         2.8951752832        4.5476626090        2.4832685752
 C         1.7522671424        4.8399249982        3.6734076130
 C         1.4538930916        3.5805820051        4.4925570124
 C         1.6811658902        3.6523289158        6.0319373133
 C         1.9616029475        6.0713866205        4.4232325525
 C         0.4516553047        5.0537405405        2.7839768227
 O         2.6529006136        3.6785166552        1.7124316418
 O         0.9569933932        2.5891707300        4.0132230584
 C         2.1506769065        2.2437627574        6.4072991102
 C         3.4984127677        2.0243414277        5.9626983648
 C         4.2623521459        0.6850452068        6.3541535983
 C         3.7647095995       -0.3232109005        5.0819682847
 C         4.6776837750       -0.5096798829        3.7723564200
 O         4.1118628380        2.9406865654        5.4155079701
 O         2.6801724050       -0.8133530396        5.0859193312
 C         5.7641396329        0.8672969587        6.3482683684
 C         3.7030633107        0.0337634038        7.6822157823
 C         3.9052324312       -1.2287314798        2.6737427679
 C         2.7384857355       -0.4868804826        2.2825183378
 C         1.2188704009       -1.2522630679        1.8063041062
 C         0.9355493811       -0.7000183641        0.4075721612
 C         0.8253274721       -1.6010287562       -0.8383094493
 C         1.3480225345       -2.8221734534        1.8408355007
 C         0.1043995310       -0.8187547789        2.7657415810
 O         2.7061189638        0.7243206948        2.3424988415
 O         0.8053739544        0.5015823131        0.1242730509
 C         1.8958822119       -1.0814430917       -1.9065238059
 C         3.3159734707       -1.4675474946       -1.5047017668
 C         4.3038995550       -2.1424434849       -2.5820607408
 C         3.2086671592       -3.1972968063       -3.3899791563
 C         3.4468532586       -3.6596998362       -4.8383647466
 O         3.6075068174       -1.3903776499       -0.3427713869
 O         2.3816912813       -3.7613398199       -2.7020352655
 C         4.8907185639       -1.1673284723       -3.6352188640
 C         5.4230449618       -3.0064750866       -1.9987098377
 C         2.2469527865       -4.6589235864       -5.2751804432
 C         1.4188328908       -4.0928645374       -6.3965100275
 C        -0.1222711865       -4.7784603079       -6.6532635916
 C        -0.7818364310       -4.8671607043       -5.2810079883
 C        -2.0841184111       -4.1444602238       -4.9738988399
 C        -0.9160802669       -3.7678190646       -7.5941226273
 C         0.1941673133       -6.0762405827       -7.3600354038
 O         1.7891642911       -3.2790298986       -7.1793164212
 O        -0.2689024217       -5.6207139744       -4.5047821927
 C        -2.6189416881       -4.6422114606       -3.5973354988
 C        -2.5465681402       -3.5578983688       -2.4768344521
 C        -3.3709636441       -3.9052529977       -1.2367830138
 C        -4.0741241077       -2.5973333870       -0.6261487845
 C        -4.8418354498       -1.6433014009       -1.5588613688
 O        -1.7820671991       -2.5828191392       -2.4772638157
 O        -4.0748421020       -2.3996560336        0.5797898735
 C        -4.3729363880       -5.0995576203       -1.2678865759
 C        -2.2602295964       -4.1311790861       -0.1916697414
 C        -5.6801308022       -0.7566490005       -0.6374930465
 C        -6.5511430717        0.2391244892       -1.3500290235
 C        -7.5531799456        1.1357272508       -0.4814544827
 C        -6.6701345670        2.4072972015       -0.1546723253
 C        -6.3091154157        3.4151406908       -1.3562469429
 C        -8.7396999596        1.5198781858       -1.3438500523
 C        -7.9937048683        0.4296597357        0.7881884433
 O        -6.4725457238        0.4683302981       -2.5405368459
 O        -6.1363151890        2.4847824457        0.8949457763
 C        -5.1313029356        4.3044909645       -1.1400995814
 C        -3.7812584476        3.4771497474       -0.6287659117
 C        -2.5795779603        4.2959659718       -0.1249137901
 C        -1.3593576783        3.2384868513        0.0148748353
 C        -0.7444363322        2.8993762064       -1.3255018756
 O        -3.7725841400        2.2595801877       -0.7174893554
 O        -1.1160654724        2.7203458690        1.0849319701
 C        -2.1041407445        5.4385367831       -1.0485822470
 C        -3.0452888573        4.8073901327        1.2715663360
 H         4.5458547807        5.6554611118        3.4058856174
 H         4.9357641271        4.6752866912        2.1204389012
 H         3.9496845739        6.1871266229        1.8687024501
 H         2.3594984356        4.4747058264        6.4095135569
 H         0.7165892328        3.8077647007        6.4536618704
 H         2.7707861511        6.0378944098        5.1231855865
 H         1.0808667518        6.2959208999        5.0389396794
 H         2.0595541724        6.9356115888        3.8343302817
 H         0.1257612425        4.2183745174        2.3181462055
 H        -0.3502435221        5.4179464702        3.3636783429
 H         0.6993710278        5.8260108637        2.0361613034
 H         2.2266354707        2.0319676801        7.4979050235
 H         1.4214878192        1.4667506375        6.0649191702
 H         4.8677389367        0.4830556470        3.3988005980
 H         5.6140057936       -0.9879295778        3.9889068182
 H         6.2533893055        0.4967895272        5.4391830122
 H         6.2151565895        0.2826378015        7.0572973205
 H         6.1183956770        1.8822249202        6.5783261079
 H         2.6380159523        0.2213820358        7.7580087081
 H         3.6909640369       -1.0161329738        7.5805338581
 H         4.1949577228        0.3714997383        8.5314125303
 H         3.6079988769       -2.2601861908        2.9262960218
 H         4.4443739877       -1.4111063211        1.7122555776
 H         0.9977571225       -2.6840608748       -0.6918580838
 H        -0.1574701133       -1.4848812205       -1.3539580147
 H         0.4383283535       -3.3182189773        1.5696246304
 H         1.6734220490       -3.2465067222        2.7788947951
 H         2.0454690857       -3.3623829468        1.1194774088
 H        -0.9347169917       -0.8759674220        2.2930461004
 H        -0.0607804403       -1.6206751929        3.5378433330
 H         0.1710495732        0.1458798085        3.1985433067
 H         1.5718258843       -1.2561741846       -2.8361846356
 H         2.0803560911        0.0188886910       -1.8950163196
 H         3.4033847478       -2.7337689543       -5.4163638983
 H         4.4184291726       -4.1888337774       -5.0015398490
 H         5.2073536062       -1.7492649949       -4.4799912021
 H         5.8492050036       -0.8140626021       -3.2738176946
 H         4.2500691241       -0.4433148290       -4.0545772065
 H         6.0848878753       -3.4611631572       -2.7174549542
 H         5.9107801243       -2.3997263236       -1.1669025057
 H         5.0812261621       -3.9395420591       -1.3757284019
 H         1.6954007910       -4.9618858870       -4.4100891407
 H         2.6681364544       -5.6550540390       -5.5502327574
 H        -1.9935974990       -3.0677783637       -4.8489627758
 H        -2.8574892457       -4.3060523582       -5.7654929594
 H        -1.2101600337       -2.9187899894       -7.0638196167
 H        -1.8465047489       -4.3314825802       -7.8492547753
 H        -0.2154665143       -3.6378800697       -8.2988802799
 H        -0.7501740734       -6.3448713914       -7.8708280033
 H         1.0537281205       -5.8887990840       -8.0087738970
 H         0.4182784567       -6.8659612606       -6.6389619087
 H        -3.6467467791       -5.0808974945       -3.6772401583
 H        -2.0185242726       -5.4721942069       -3.1924026882
 H        -4.1674034211       -1.0792859199       -2.3079080472
 H        -5.3819711115       -2.2046204329       -2.3305162585
 H        -5.2288351561       -4.7828892925       -1.6618639709
 H        -4.6977979534       -5.3465723055       -0.3065646689
 H        -3.9797093249       -5.9164089112       -1.9281328063
 H        -1.4203384075       -3.4729833000       -0.3034086583
 H        -2.5676205940       -4.0742030403        0.8362783568
 H        -1.9165380911       -5.1193751123       -0.2241200103
 H        -5.0224462280       -0.4060916282        0.1141830601
 H        -6.4317663952       -1.4082932182       -0.2394923534
 H        -6.3103470106        2.7939829063       -2.3137915815
 H        -7.2397755473        4.0086581166       -1.5230375803
 H        -8.5259867216        2.2194705238       -2.1671952490
 H        -9.4669944962        1.9952456689       -0.7403573859
 H        -9.2634885495        0.6441031282       -1.7739421538
 H        -8.8304412119        0.8678988901        1.3211732147
 H        -8.2801366926       -0.6085256949        0.7302258522
 H        -7.1308907673        0.5363364112        1.4260145460
 H        -4.8359746196        4.8396161276       -2.0817071524
 H        -5.2897122311        5.0137259154       -0.2998369583
 H        -0.6787418224        1.8031501821       -1.5706460318
 H        -1.1822258611        3.3768627680       -2.1884481571
 H         0.3411752283        3.1767315331       -1.3350078090
 H        -3.0142120174        6.0330694878       -1.3684314831
 H        -1.7362659194        5.2563619069       -2.0526440640
 H        -1.3700439353        6.1181459340       -0.6208814780
 H        -3.8870841659        5.4079545540        1.1192937265
 H        -3.3132211189        4.0529160526        1.9964891964
 H        -2.3625118660        5.4851042545        1.8408722998
 Na        0.7986669931        2.2236938772        1.5340025931
