155

 C         3.6171674975        5.2594208389        3.8614751756
 C         2.2107029838        4.7809739031        3.7409590016
 C         1.1314641843        4.9591826432        4.8607282326
 C         0.9888690376        3.4474340538        5.3684633158
 C         1.3477635282        3.0084664069        6.7787216183
 C         1.5626652213        5.9311828456        5.9843570881
 C        -0.2614221984        5.3902815502        4.1457073035
 O         2.0171110485        4.2486056685        2.6351759617
 O         0.4014182073        2.7152443957        4.5912229266
 C         2.1067310503        1.6201019446        6.6175458632
 C         3.4963120328        1.8856290418        6.1165251525
 C         4.7045696861        0.8392778477        6.0163081841
 C         4.2470590258       -0.2702783605        4.9605997202
 C         4.7576030249       -0.1682648192        3.5159246509
 O         3.7611801356        3.0101280473        5.6656870516
 O         3.2897906169       -0.9274013444        5.2297293118
 C         6.0424084781        1.5087457892        5.6405051832
 C         4.8206441340        0.1579225244        7.4034754908
 C         3.7718944788       -0.9625021327        2.6929534314
 C         2.4321653374       -0.2343135488        2.4921907272
 C         1.3602503091       -0.8594810944        1.5417158517
 C         1.5457751146       -0.0159000905        0.1619622278
 C         1.2235323196       -0.8121147373       -1.1115958222
 C         1.6967004711       -2.4336216936        1.3803528777
 C        -0.0564097972       -0.5188838770        2.1075357222
 O         2.3809564857        0.9195009909        2.9115944947
 O         1.5893421396        1.2605779657        0.1861786727
 C         2.2506445071       -0.6959483645       -2.2918617454
 C         3.5462421414       -1.3865711254       -1.8253473756
 C         4.6361660578       -2.0131842794       -2.8523648681
 C         4.0011184659       -3.3859801584       -3.5796430748
 C         4.1057852141       -3.5291306603       -5.1292205481
 O         3.8252121571       -1.4314346785       -0.6403892970
 O         3.4329537202       -4.2012233912       -2.9017529345
 C         5.0512311293       -0.9573174486       -3.9164599344
 C         5.9241812096       -2.5927740523       -2.1408794533
 C         3.2772439191       -4.5108942521       -5.8493387799
 C         1.7769417998       -4.0625601247       -5.8164653816
 C         0.5407632804       -4.8907252660       -6.5128226155
 C        -0.5853316400       -5.2194675424       -5.4967451996
 C        -1.2682220425       -4.0427548462       -4.6595715595
 C        -0.0177137157       -4.0346719738       -7.7440768850
 C         0.9437157680       -6.3168226812       -7.1844563141
 O         1.4869475927       -3.0532701947       -5.2306255644
 O        -0.9221606918       -6.3917295941       -5.3870146876
 C        -2.3763601009       -4.5338292780       -3.5842473721
 C        -2.4814270727       -3.4107347101       -2.5685117977
 C        -3.6121581357       -3.6045192261       -1.4587237401
 C        -3.6125047807       -2.2373301485       -0.6135400174
 C        -4.3062976551       -0.9736115118       -1.1502858802
 O        -1.7153965826       -2.4427916399       -2.5792137203
 O        -2.9391956351       -2.1611576872        0.3892070124
 C        -4.9721225485       -4.0427580451       -2.0187897684
 C        -3.0919124677       -4.7137569231       -0.4872449337
 C        -5.7962550225       -1.0203359765       -0.7429238511
 C        -6.8009598001       -0.5413893123       -1.8891110999
 C        -7.7201138302        0.6457103391       -1.5674131612
 C        -6.9767517273        1.9921074079       -1.2296376824
 C        -6.0743442492        2.6385226862       -2.3642628488
 C        -8.8150841658        0.9639285001       -2.6143228291
 C        -8.3806435353        0.2928634551       -0.2182872214
 O        -7.0866315631       -1.2993996955       -2.8088095412
 O        -7.1230807776        2.5611044328       -0.1448995850
 C        -5.1514755037        3.7708272660       -1.9091471204
 C        -3.8774292017        3.1163356611       -1.2541810756
 C        -3.3861198115        3.8976966740        0.0474746946
 C        -1.9945058857        3.3424263921        0.5043694557
 C        -0.8333636886        3.7378213569       -0.4346263810
 O        -3.5487730002        1.9988367675       -1.6730510455
 O        -1.7790083370        2.6286339392        1.5068506585
 C        -3.2755010294        5.4097254576       -0.1027303209
 C        -4.4417484957        3.4169882656        1.1170472287
 H         4.2571421733        4.3882815850        3.9976193204
 H         3.9550914085        5.7967620618        3.0130144568
 H         3.7553730076        5.9403334658        4.6261663781
 H         1.8544098435        3.5841019849        7.5167828949
 H         0.3904305803        2.8393560540        7.3028871284
 H         2.4815854399        5.5753715710        6.4945987211
 H         0.7261603906        6.0014282803        6.6577782323
 H         1.6451205370        6.9623320165        5.5187770186
 H        -0.6434525489        4.6194257552        3.6201259153
 H        -0.8939691111        5.7835376500        4.8751531669
 H         0.0623748097        6.1919293940        3.5085530628
 H         1.9716636247        0.8238390839        7.3629597301
 H         1.6142657437        1.1364269051        5.6741543488
 H         4.6929861643        0.8632690768        3.2670848572
 H         5.7809295380       -0.4003329715        3.2673759865
 H         5.9051754745        1.9302826970        4.6831699171
 H         6.7544479093        0.6904243584        5.6703104692
 H         6.2866762999        2.3414790300        6.2610760297
 H         4.3562696172       -0.7934773733        7.4033487448
 H         5.8191616471       -0.0260482773        7.7186818283
 H         4.4052004115        0.6020909754        8.2475496338
 H         3.6793440238       -1.9463680978        3.1849703537
 H         4.2139818103       -1.1254496911        1.6572840895
 H         1.1396952389       -1.7711717850       -0.6681113030
 H         0.2358025077       -0.4669730357       -1.5021465167
 H         0.9501524524       -2.7028334631        0.6923020583
 H         1.4306815733       -3.0405008454        2.2832226066
 H         2.7358686951       -2.4849893655        0.9646542904
 H        -0.7041027591       -1.3428934271        1.9163014936
 H        -0.0034741349       -0.2134103343        3.1713165859
 H        -0.3341314134        0.3881055745        1.5834005413
 H         1.8359990309       -1.1165953052       -3.2972573022
 H         2.3039128432        0.3367708252       -2.5210242829
 H         3.9231905321       -2.5866650631       -5.5781027612
 H         5.1653338697       -3.8635839437       -5.2691646262
 H         5.7508101970       -1.4394784156       -4.5736996284
 H         5.6778003574       -0.2553831686       -3.4184421642
 H         4.2444320061       -0.4287734126       -4.4577688985
 H         6.4254872389       -3.2574675265       -2.8643522747
 H         6.5543673369       -1.8009731417       -1.6257079818
 H         5.5722417679       -3.2490419058       -1.2514788389
 H         3.2183260397       -5.5059362487       -5.3086839097
 H         3.7308874095       -4.5801449481       -6.8522020967
 H        -0.5218406163       -3.5123985029       -4.1954477906
 H        -1.8423842522       -3.5036704554       -5.3953198449
 H        -0.2759513057       -3.1286966410       -7.2098396173
 H        -1.0040368044       -4.5332921991       -8.0988933304
 H         0.6968930547       -4.2047610904       -8.5171025237
 H         0.1165898259       -6.9160796199       -7.6025804644
 H         1.7251023304       -6.1250227181       -7.9777106545
 H         1.5637065602       -6.8753480617       -6.5021401079
 H        -3.3245527557       -4.6643281974       -4.0779659243
 H        -2.1810767505       -5.5704924315       -3.1771843018
 H        -3.8995399250       -0.1117970768       -0.7399612336
 H        -4.1693719324       -0.7657643397       -2.1767230356
 H        -5.4939719639       -3.2539507623       -2.3535702281
 H        -5.6490258794       -4.3764254166       -1.1854505861
 H        -4.8001290788       -4.9817665032       -2.6601470698
 H        -2.0262256624       -4.9552319487       -0.6045745641
 H        -3.1902224198       -4.2203362149        0.4915798475
 H        -3.7850068083       -5.5869802711       -0.5996100902
 H        -5.9652306575       -0.3636993158        0.0859452875
 H        -6.1435377569       -2.0100021543       -0.5885647464
 H        -5.6822445459        1.7865095637       -3.0333992051
 H        -6.8467751384        3.1240504916       -2.9609401848
 H        -8.3418321710        0.9798660044       -3.6047771376
 H        -9.1299066278        1.9896258232       -2.3516948340
 H        -9.5288380447        0.1443172285       -2.5796183330
 H        -9.0217153536        1.1442627406        0.0502538160
 H        -9.1008743601       -0.4963739184       -0.4636272246
 H        -7.6024033680        0.0849067065        0.5609250167
 H        -4.8107067810        4.3764750560       -2.7886992556
 H        -5.7740285887        4.5122320620       -1.3388959159
 H        -0.6629827098        4.8199205117       -0.5507325749
 H         0.1133687616        3.3712040913       -0.0115397800
 H        -1.1169343987        3.2951833073       -1.4568451970
 H        -4.1733521150        5.8580060594        0.2414987377
 H        -3.1108944102        5.6252495354       -1.1587835028
 H        -2.4461124891        5.7451435206        0.5492643172
 H        -5.4324086980        3.8011571359        1.0619653065
 H        -4.4898597976        2.3393091006        1.0864997162
 H        -4.0060277314        3.6889340969        2.0349950719
 Na        0.5948883357        2.4321032945        2.2540892377
