155

 C         3.2549184207        5.6403628592        3.9319765232
 C         2.0723500600        4.8288958179        3.6357506821
 C         0.9680678800        4.7591343961        4.8151868283
 C         0.7989904625        3.2175761151        5.2073497968
 C         1.1727147284        2.7574062148        6.6214916968
 C         1.4491163191        5.6530236006        6.0852289899
 C        -0.4546499923        5.2888624040        4.3822205354
 O         1.8369847646        4.2305394629        2.5658052140
 O         0.1570127133        2.4530733961        4.4993943373
 C         2.2519666058        1.6566385520        6.6490454473
 C         3.5272047041        2.0346221992        5.9381554754
 C         4.6628015036        0.8378880838        5.9708380390
 C         4.2126244990       -0.2920117908        4.9781207850
 C         4.7485292660       -0.4063586907        3.5212378687
 O         3.7942611796        3.0498794063        5.3407023528
 O         3.4620542962       -1.1303661933        5.3981070347
 C         6.0643272239        1.3176944414        5.4561783557
 C         4.9009110806        0.4004561513        7.3608799531
 C         3.7024525918       -1.1136541082        2.5310004061
 C         2.3781042690       -0.2895719877        2.2051524802
 C         1.2361097444       -0.8596703320        1.3019196575
 C         1.3007197617       -0.0087670880       -0.0524422196
 C         1.0598777893       -0.7562267749       -1.3904274855
 C         1.3369486314       -2.3788915786        1.0703436303
 C        -0.2354889391       -0.5788165231        1.9772428506
 O         2.1632553197        0.7627094626        2.7936699130
 O         1.2743298045        1.2614801170        0.1004433732
 C         2.2692269479       -0.7680840108       -2.3496570747
 C         3.5098876436       -1.3484018112       -1.7116933081
 C         4.6234273174       -1.8059813819       -2.7156302568
 C         4.0686514452       -3.1623834381       -3.2324188873
 C         4.1215938846       -3.3722127573       -4.7859822003
 O         3.6645621471       -1.1933435468       -0.5107625005
 O         3.5807352653       -4.0568696527       -2.5753117848
 C         4.9281746396       -0.7652428084       -3.7581900326
 C         5.9953696939       -2.1579283705       -1.9830612200
 C         3.0847538179       -4.4871781903       -5.2833194025
 C         1.7926419717       -3.8914356214       -5.8329336989
 C         0.6669566141       -4.9466022760       -6.4932032343
 C        -0.5157276311       -5.1688497366       -5.4398422065
 C        -1.0112367587       -3.8705736819       -4.7969304432
 C         0.0710725492       -4.2242806799       -7.7658442613
 C         1.2505593049       -6.2908726872       -6.8704230323
 O         1.5532814926       -2.7125213955       -5.7373518022
 O        -0.9111541445       -6.3055279181       -5.2780272244
 C        -2.2511445911       -4.1320852055       -3.9121049726
 C        -2.2415671016       -3.4253868594       -2.5356307887
 C        -3.2380727039       -3.7982705929       -1.4595339917
 C        -3.7150958447       -2.3960439336       -0.7388032700
 C        -4.6221273177       -1.4405889591       -1.4337784307
 O        -1.3081279279       -2.6970526281       -2.2417858404
 O        -3.2450263574       -2.1097036524        0.3261590216
 C        -4.4280675157       -4.6089925262       -1.9673393023
 C        -2.5839142031       -4.7072017726       -0.3289759210
 C        -5.9375718470       -0.9304090189       -0.7611744461
 C        -6.8279716153       -0.4757584697       -1.8998927937
 C        -7.8163820892        0.7446509871       -1.6299259958
 C        -6.9124940920        1.9378008885       -1.2911635338
 C        -5.9955347526        2.6510405145       -2.2951822970
 C        -8.6212430456        0.9231658535       -3.0107332596
 C        -8.8378459730        0.6419977524       -0.4848111486
 O        -6.7271335858       -0.9925169004       -3.0262979168
 O        -6.6746922808        2.1237970014       -0.0688421352
 C        -5.1102879077        3.7346319345       -1.6971601908
 C        -3.8744731412        3.0605064088       -0.9742189052
 C        -3.3646913273        3.8235814671        0.2938510514
 C        -1.9612882401        3.3142795650        0.6038817494
 C        -1.0036839287        3.3310089679       -0.5453985857
 O        -3.3557521859        2.0609345546       -1.3897612830
 O        -1.6497219816        3.0146616838        1.7617995832
 C        -3.3891293889        5.3998358024        0.0721951627
 C        -4.2385677230        3.6150266240        1.5192888160
 H         4.0145976610        5.5515432954        3.1281650729
 H         3.0120123913        6.6803025982        3.9928233480
 H         3.5874884115        5.5227920791        4.9549784659
 H         1.5400078207        3.5121555035        7.2489564950
 H         0.3027281940        2.2732504282        7.0868045257
 H         2.2739433504        5.1091169712        6.5089265421
 H         0.6573366897        5.7203007428        6.7642283663
 H         1.7281038899        6.6519478593        5.7657545739
 H        -0.5753587736        4.8487349532        3.3953665996
 H        -1.1502860118        4.9288006847        5.0693834207
 H        -0.4172014268        6.4006943647        4.3493749744
 H         2.3952891790        1.1956478705        7.6556537863
 H         1.7364269995        0.7371648922        6.2077781144
 H         5.0860105442        0.4782990877        3.0609617087
 H         5.6268017601       -1.0489871972        3.5770197346
 H         5.8445746819        2.1448464550        4.7606261512
 H         6.5451226102        0.4400314238        5.1033636696
 H         6.6046002383        1.7422259449        6.3422654317
 H         3.9767059548        0.1819682047        7.9305003129
 H         5.5319949750       -0.4877582973        7.5345257261
 H         5.3648260550        1.1176538667        8.0023176813
 H         3.4361853608       -2.1519174742        2.7999198600
 H         4.2561500821       -1.2428443256        1.5650271547
 H         0.7034756843       -1.7876506963       -1.1750735761
 H         0.1630106809       -0.1716608144       -1.7352858306
 H         0.6392166693       -2.7388695851        0.4166374986
 H         1.0870382696       -2.7877089148        2.0457299923
 H         2.4087878279       -2.5711758192        0.8272318988
 H        -0.0213283090       -0.0655755421        2.9108885205
 H        -0.7788844409        0.0371530096        1.3329781970
 H        -0.7629464474       -1.4481859433        2.1984818438
 H         1.8832681993       -1.1688386797       -3.2629937994
 H         2.7579115749        0.2548250089       -2.5107484780
 H         3.8605993455       -2.4161011972       -5.1458508548
 H         5.1548747612       -3.6722028834       -5.0690570003
 H         5.4819636458       -1.1613463821       -4.6045303769
 H         5.4248034392        0.1014951917       -3.3252835782
 H         3.9771604270       -0.2823999901       -4.1717404905
 H         6.7831932017       -2.5296479616       -2.7572184137
 H         6.4935728531       -1.2221373260       -1.6338229615
 H         5.8102939490       -2.8953360097       -1.2025116559
 H         2.8257065272       -5.0336447641       -4.3553453112
 H         3.4487044268       -5.2353095104       -5.9517381013
 H        -0.2874511088       -3.4291349977       -4.1944666992
 H        -1.2897202109       -3.2785908719       -5.6681689433
 H         0.0755910775       -3.1344453715       -7.4778914068
 H        -0.9100006592       -4.6921054815       -7.8366313298
 H         0.6237980950       -4.6161926800       -8.5676085222
 H         0.5154426978       -7.0523434498       -7.2169754676
 H         1.8517364047       -6.2400235293       -7.7812227036
 H         1.8081362216       -6.6994569364       -6.0974102733
 H        -3.1709693147       -3.8575456545       -4.3801102665
 H        -2.3405591474       -5.2389780733       -3.6164702284
 H        -3.9520954783       -0.6326987681       -1.7068553884
 H        -4.7986996404       -1.8127884006       -2.4647690685
 H        -4.7692539839       -4.0932905545       -2.8632017690
 H        -5.1555303911       -4.7966540792       -1.2448801072
 H        -4.2063053115       -5.6185997291       -2.3100210346
 H        -1.5002764769       -4.7356827422       -0.4581462219
 H        -2.9479897978       -4.2190516855        0.5812151329
 H        -2.8832577841       -5.7603696306       -0.4529616659
 H        -5.8219141579       -0.1562194365       -0.0097400088
 H        -6.4178319190       -1.7866883106       -0.3613630722
 H        -5.3417457706        1.9257355299       -2.9235076966
 H        -6.6566948530        2.9988132826       -3.0988240078
 H        -7.9136853628        0.8806794117       -3.8430225574
 H        -8.9912813447        1.9153848950       -2.9416250257
 H        -9.4456721054        0.1911045571       -3.0409306827
 H        -9.7694417054        0.9698459712       -0.9087786325
 H        -8.8758257566       -0.3617654888       -0.1012229523
 H        -8.6292135083        1.4348515917        0.2310703888
 H        -4.7426068385        4.3921864996       -2.5965294525
 H        -5.6560865332        4.3496909943       -0.9323904306
 H        -1.1002734105        4.2996955830       -1.1266972151
 H        -0.0149983159        3.3137807880       -0.1734375204
 H        -1.3860662647        2.5689392981       -1.2655333398
 H        -4.2610169781        5.5870386555       -0.4853551817
 H        -2.4848831231        5.7682608470       -0.3839057504
 H        -3.5528054591        5.8355360810        1.0476099682
 H        -5.2742415391        3.7944392023        1.4518613524
 H        -4.2159734207        2.5333201267        1.6134382733
 H        -3.6380575333        3.9392456546        2.3647612941
 Na        0.5778249582        2.4083974100        2.0742746264
