155

 C         2.6803577129        5.7587527399        4.0327700643
 C         1.5554458957        4.7716344794        3.7464552012
 C         0.4713729018        4.5128035402        4.8511039195
 C         0.6167377816        2.9849887746        5.2417592933
 C         1.3028762716        2.5414917638        6.4958864198
 C         0.6734790789        5.3626536660        6.1277790920
 C        -0.9196440922        4.6843990836        4.1513479360
 O         1.5985674812        4.3163636912        2.5936070564
 O         0.2378490740        2.0719132984        4.4778125460
 C         2.2031871695        1.3308115269        6.2825488370
 C         3.4478974779        1.6604145236        5.4308469123
 C         4.5630782577        0.6248178112        5.1792564447
 C         3.8784510546       -0.6986942109        4.6191848542
 C         4.5688786311       -1.4488778177        3.4597835895
 O         3.5130575869        2.7590278649        4.9385231046
 O         2.8334511644       -1.0240907094        5.1719101547
 C         5.7210197786        1.2568747631        4.3139394301
 C         5.2825726429        0.2258374821        6.4574930262
 C         3.5409051723       -1.8848630477        2.4002065197
 C         2.4151822576       -0.8192703092        2.1129766024
 C         1.1637282898       -1.2778805158        1.1854588998
 C         1.1021483384       -0.2567507365        0.0607668481
 C         1.3084929728       -0.4879284377       -1.5283672041
 C         1.1761511680       -2.7883645475        0.6960938062
 C        -0.1721956109       -1.1565601908        2.0455173440
 O         2.5177778940        0.3344137665        2.4640629946
 O         0.8045196011        0.9605541373        0.2854996770
 C         2.4754918287        0.3460003821       -2.0505805070
 C         3.7982177093       -0.0903975858       -1.4040275889
 C         4.8265823434       -0.9846647989       -2.1855079186
 C         3.9101963068       -2.1409081800       -2.6774305178
 C         3.7003605102       -2.5642470085       -4.1162287743
 O         3.9630107344        0.3094327584       -0.2981854430
 O         3.5340012309       -2.9466649717       -1.8404953817
 C         5.4070015965       -0.0454246207       -3.3062208997
 C         5.8982700677       -1.5842737624       -1.3007746646
 C         2.7802880245       -3.8256567164       -4.3241435329
 C         1.9826969044       -3.7313388893       -5.5538278978
 C         0.9674902284       -4.8871142697       -6.0837023069
 C        -0.1717354967       -4.6257827957       -4.8755537972
 C        -1.0785654326       -3.4484932838       -4.9382292939
 C         0.3766179788       -4.6360682257       -7.5448711793
 C         1.6658281734       -6.1871444870       -5.8803600243
 O         1.9570016033       -2.6705865891       -6.1699667259
 O        -0.2186955093       -5.4866305235       -4.0358348547
 C        -2.3030179915       -3.5105292174       -3.9890824401
 C        -1.9789069269       -3.6680703929       -2.4893320677
 C        -2.9522712230       -4.3177016316       -1.4621879991
 C        -4.1950110282       -3.3866958630       -1.0718519895
 C        -4.7149634464       -2.3209635062       -2.1157434686
 O        -0.9760215993       -3.1382132287       -2.0708008798
 O        -4.7096406244       -3.5003797283        0.0003937229
 C        -3.6115488688       -5.6164104507       -1.9347197775
 C        -2.1555698782       -4.5933033282       -0.1232061397
 C        -5.9475937785       -1.5396220664       -1.5651091075
 C        -6.3313065274       -0.4224919744       -2.4876509958
 C        -7.4531637440        0.5754685652       -2.1163813805
 C        -6.8879123841        1.6909632847       -1.1696001865
 C        -6.4122053334        2.9855073674       -1.9319868648
 C        -8.1647442674        1.1525680299       -3.3854969676
 C        -8.5209873870       -0.2913510559       -1.3370655994
 O        -5.5189853678       -0.3085333251       -3.4065810581
 O        -6.6523439901        1.5069840474       -0.0209735122
 C        -5.4267451468        3.8869836455       -1.1967651528
 C        -4.1038091848        3.3286175253       -0.7382653458
 C        -3.4499497581        4.1466269641        0.3753539622
 C        -1.8327090213        3.8391466309        0.5253006923
 C        -0.8291691099        3.9066042456       -0.7049426155
 O        -3.5287276217        2.4095170085       -1.2825909225
 O        -1.4233460818        3.3530881558        1.5567970463
 C        -3.6277968790        5.7055579601        0.0976372174
 C        -4.1299832029        3.6228912269        1.6859122908
 H         2.5724455899        6.7952073866        3.9586828336
 H         3.1208951857        5.7135627804        5.0203068678
 H         3.3329275634        5.4781778419        3.2571087057
 H         1.8641785362        3.4246787244        6.8897795722
 H         0.4491656105        2.4242682022        7.2230888703
 H         1.7191597021        5.6682318450        6.1782369342
 H         0.4208497638        4.9059288782        7.1258765640
 H         0.1202032654        6.2805093205        6.1165091870
 H        -1.2562245498        3.9138141718        3.5632203506
 H        -1.7427161158        4.8902742907        4.8689631082
 H        -0.8857471856        5.5634368732        3.5345771382
 H         2.5175423469        0.8017155076        7.2216090442
 H         1.6656519355        0.6623025287        5.6805204379
 H         5.3046403527       -0.7684527244        3.0272445604
 H         5.0764621085       -2.3650712858        3.8973757938
 H         5.2790777684        1.5625407382        3.3851144852
 H         6.4184435241        0.4303637588        4.2216581760
 H         6.1402332303        2.1371058658        4.7540264505
 H         4.6721236472       -0.0522235084        7.2853847673
 H         5.9907983021       -0.5524403443        6.2593256589
 H         5.8885602859        1.0643592666        6.7660134145
 H         3.1536002614       -2.8318708369        2.7726686001
 H         3.9409979952       -2.0679302022        1.4050289658
 H         1.4758283385       -1.5999885412       -1.6458517618
 H         0.3885167686       -0.2763719932       -1.9968133488
 H         0.3226548431       -3.0591980627       -0.0497720584
 H         0.9180897207       -3.4639484124        1.5245486596
 H         2.1464728773       -3.0787257484        0.2862173288
 H        -0.1094125828       -0.4633002520        2.8635022025
 H        -1.0321700801       -0.8724413719        1.3961793099
 H        -0.4190505010       -2.1021612986        2.5512585829
 H         2.5241504515        0.3444899683       -3.1293152907
 H         2.1610206702        1.4404340407       -1.8599901273
 H         3.3012984678       -1.6582148252       -4.5674686397
 H         4.6721163392       -2.7186741132       -4.6700417869
 H         5.8464149053       -0.5584051549       -4.1466726415
 H         6.2518588121        0.5894643627       -2.9513039094
 H         4.6756952366        0.6354607711       -3.6840277096
 H         6.6218786992       -2.0867452834       -1.8461972274
 H         6.2802650700       -0.7809493788       -0.6476692597
 H         5.4278239202       -2.2706166164       -0.5179614783
 H         1.9914989878       -3.8886607042       -3.5047855786
 H         3.3074706866       -4.7744534785       -4.1767368339
 H        -0.3916626048       -2.5833601810       -4.8611343515
 H        -1.4938709732       -3.2202405018       -5.9463219237
 H        -0.1526599370       -3.7529405703       -7.4810051250
 H        -0.1816288081       -5.5071005776       -7.7888525925
 H         1.2553781352       -4.6907751426       -8.2070523599
 H         1.2325096095       -7.1362770199       -6.2007131740
 H         2.6355313657       -6.2012697982       -6.3632357950
 H         2.0459124120       -6.2318473463       -4.8392374296
 H        -2.8109811227       -2.6001534792       -4.1515527903
 H        -2.9815429329       -4.3548486148       -4.3985650889
 H        -3.8965480410       -1.5755324332       -2.2642760654
 H        -5.0050520142       -2.7306059640       -3.1166327024
 H        -4.3248931094       -5.5239419318       -2.7674920985
 H        -4.2532146747       -6.0608999438       -1.1025763154
 H        -2.9244234271       -6.4501851383       -2.0471705073
 H        -2.0610147108       -3.6148250346        0.4069007599
 H        -2.5858658506       -5.3710055492        0.5691436638
 H        -1.1838302702       -4.9765909169       -0.4860297910
 H        -5.6684466254       -1.1255032563       -0.5629085592
 H        -6.7793711328       -2.2282830782       -1.4114866701
 H        -5.8905393198        2.6584210798       -2.7881314447
 H        -7.3086911607        3.5282076806       -2.1783586376
 H        -7.5302337703        1.7925669076       -4.0556110927
 H        -9.0338932551        1.7703292968       -3.1367921048
 H        -8.4966446656        0.2663991961       -3.9952530127
 H        -9.2133713485        0.4146542854       -0.8205335677
 H        -9.1950608722       -0.9578878807       -1.9061830897
 H        -8.0819414556       -0.7648346399       -0.4392956175
 H        -5.2197536507        4.8042125723       -1.7707994447
 H        -5.9349444166        4.2818878855       -0.3704907546
 H         0.1494533365        4.1264054428       -0.3344736891
 H        -0.7618977518        2.8167962388       -1.0699889295
 H        -1.2488491291        4.4575909378       -1.5501744031
 H        -4.6965446695        5.9720819049        0.1114025790
 H        -3.2644995302        5.9646620415       -0.8880180932
 H        -3.1896968498        6.1944339547        0.9072276054
 H        -5.1116650694        3.9989192539        1.5975391259
 H        -4.1008518199        2.5609567616        1.7638940538
 H        -3.7828670983        4.1479084914        2.5265839891
 Na        0.4685094858        2.2805115334        2.2606265021
