155

 C         2.7565824031        5.4649953229        4.0763334374
 C         1.5815030826        4.6601188629        3.8321032411
 C         0.4254320801        4.4677207213        4.9861990810
 C         0.5856177447        2.9643608458        5.2866971786
 C         1.4237487993        2.5369041565        6.5117509968
 C         0.5087457851        5.4647345420        6.1232662181
 C        -0.9448322688        4.6217212139        4.4104054257
 O         1.4982391175        4.2035709742        2.7126151080
 O         0.0460282701        2.1235379614        4.6410531828
 C         2.3552996783        1.3990528459        6.2420760394
 C         3.5420507709        1.7849658189        5.3360853729
 C         4.5452747321        0.6924468747        5.1100294977
 C         3.8748155781       -0.6661944339        4.4684486576
 C         4.5072300340       -1.4094372997        3.2444449257
 O         3.5289924780        2.8726086106        4.7889692342
 O         2.9369409532       -1.1707821978        5.0686327037
 C         5.6551903382        1.1901781284        4.1415241631
 C         5.0726970979        0.2236004044        6.4853533737
 C         3.4237557876       -1.8698389324        2.2721293444
 C         2.3775935620       -0.7573775540        1.9130849355
 C         1.1173454879       -1.1558635206        1.0283678221
 C         0.9833523345        0.0315507636       -0.0567289002
 C         1.3353907039       -0.4504527706       -1.4907852035
 C         1.2815988747       -2.5149823218        0.3864349699
 C        -0.0562045604       -1.0931223863        2.1052419752
 O         2.3896033482        0.2928453036        2.5258874596
 O         0.7737025850        1.1276744035        0.3048888485
 C         2.5623316193        0.3318812300       -1.9968227435
 C         3.8620247460        0.0253919708       -1.2948438184
 C         4.8369296204       -0.8981223108       -2.1101091109
 C         3.9803766564       -2.2198802771       -2.5140523977
 C         3.7952028210       -2.4435925396       -4.0363907260
 O         4.1651907798        0.4266564050       -0.1601070572
 O         3.4972350015       -2.9684312327       -1.6886039452
 C         5.4002040807       -0.2009169483       -3.3283217747
 C         6.0450242112       -1.3063896216       -1.1421771472
 C         2.8782137238       -3.6001478505       -4.3602981292
 C         1.9691400550       -3.4721899315       -5.6941837704
 C         1.0547870337       -4.7621214109       -5.8060005603
 C        -0.0840935579       -4.6648334398       -4.7960645256
 C        -1.1403119982       -3.4927328838       -4.9257398318
 C         0.6174945248       -4.8256341316       -7.2883635525
 C         1.7593723913       -6.1574411647       -5.5270845901
 O         1.8496097289       -2.4806856035       -6.4136535543
 O        -0.3245540216       -5.4847479414       -3.9284587180
 C        -2.3673843856       -3.8158182671       -3.9558829268
 C        -2.0770216090       -3.6040179575       -2.4789576702
 C        -2.9755410498       -4.4607658056       -1.5067273661
 C        -4.2192152624       -3.5145925295       -1.0745101560
 C        -4.5207642306       -2.3379902328       -2.0189035392
 O        -1.1672894234       -2.8991759757       -2.0553827358
 O        -4.7509404929       -3.7746015426       -0.0140761165
 C        -3.5730481626       -5.6866498961       -2.2770620736
 C        -2.2354571764       -4.9000906860       -0.2454895508
 C        -5.8820359642       -1.6603875534       -1.6683635893
 C        -6.2462346397       -0.4412743541       -2.4467863296
 C        -7.5176405602        0.4747624940       -2.1545482914
 C        -6.7986238915        1.6048026203       -1.2596682141
 C        -6.2314293961        2.7940679999       -2.0858617697
 C        -7.8948912745        0.9075974176       -3.5750354274
 C        -8.7069390048        0.0038630644       -1.3717381188
 O        -5.4898085668       -0.0443517701       -3.2584674651
 O        -6.7612219345        1.4573557299       -0.0432674329
 C        -5.6288622982        3.7851842153       -1.1082478359
 C        -4.1720303480        3.4787690101       -0.8907535688
 C        -3.4733289939        4.1401533171        0.3509339514
 C        -1.9157543808        3.6160352884        0.5783277509
 C        -0.9857476176        3.8554283766       -0.6141903709
 O        -3.6898378357        2.5983246349       -1.6011603550
 O        -1.5971919768        3.1772429475        1.6794364243
 C        -3.3204027618        5.6647137510        0.2497725112
 C        -4.1954621126        3.7749291622        1.6520786561
 H         2.3519515542        6.5344057379        4.2224206303
 H         3.2020185834        5.4076165067        5.0586529331
 H         3.4199800818        5.5675856279        3.1595022794
 H         1.8969901331        3.3228210149        7.0332661605
 H         0.6981445784        2.2863753160        7.2483900153
 H         1.2612640176        5.4280826541        6.9250936075
 H        -0.3965477909        5.4746767646        6.6944778909
 H         0.5550085062        6.4993327867        5.6677107663
 H        -1.1916793220        3.8741725565        3.5556888822
 H        -1.7667926095        4.4743929357        5.1534103904
 H        -1.0934211543        5.6512430347        3.9604708543
 H         2.7513427410        1.1057584671        7.1951713223
 H         1.8502039946        0.4891626584        5.7122949174
 H         5.1689952599       -0.7627390578        2.6474168339
 H         5.0740636209       -2.2033796206        3.7043996599
 H         5.2851270325        1.5493588091        3.1620583764
 H         6.5069648615        0.5391397759        4.1551053144
 H         5.8912619078        2.1708688512        4.6655838907
 H         4.1703123164       -0.1712170332        6.9910470444
 H         5.9101921316       -0.5055065993        6.4303085741
 H         5.3758601136        1.0627557574        7.1011032914
 H         2.8172378366       -2.6255018512        2.7742235861
 H         3.8355912541       -2.3540222436        1.3767152183
 H         1.4823472536       -1.5232757135       -1.5513456801
 H         0.3723176293       -0.1931810275       -2.0943274524
 H         0.4849088322       -2.8317306763       -0.1930135363
 H         1.3614195652       -3.3263188421        1.1318875644
 H         2.2346201732       -2.5463810018       -0.1702857543
 H        -0.8352571299       -0.2394316676        2.0325134481
 H        -0.6209928325       -2.0093719450        2.1605312560
 H         0.3987954908       -0.8866879149        3.1018744444
 H         2.5436230563        0.2482985897       -3.0890786397
 H         2.4047241138        1.3755806222       -1.8649612268
 H         3.6554645209       -1.4969394000       -4.6142540728
 H         4.7795159469       -2.7737137977       -4.3182985578
 H         5.9344349435       -0.7968548812       -4.0450169187
 H         6.0209362660        0.5792706737       -2.9983682941
 H         4.6195749827        0.3752201458       -3.8580644854
 H         6.9114883590       -1.7116485450       -1.6816210830
 H         6.3615618395       -0.4328363134       -0.6532534511
 H         5.7679893889       -1.9649856324       -0.3975197976
 H         2.2781494141       -3.9040645652       -3.5178455835
 H         3.6343947553       -4.4217405055       -4.5365465256
 H        -0.7438797417       -2.4673619760       -4.7986863285
 H        -1.5777272911       -3.3597623877       -5.9325960791
 H         0.4578128523       -3.6960941432       -7.5903431417
 H        -0.2173173989       -5.4800773006       -7.5361416539
 H         1.4582844563       -5.3184567272       -7.6977472087
 H         1.2420336739       -6.9158428398       -6.1145769523
 H         2.7820780557       -6.2431945183       -5.9355031334
 H         1.9147077166       -6.5269834249       -4.5616789152
 H        -3.1750368346       -3.0826248490       -4.3238278141
 H        -2.7247892239       -4.7698480090       -4.1540439161
 H        -3.6705425110       -1.6079612204       -1.9205410032
 H        -4.4868522729       -2.7359091791       -3.0732312238
 H        -4.2647559390       -5.3686698911       -3.0912135886
 H        -3.9915197059       -6.3677197264       -1.6853073397
 H        -2.8317306657       -6.3090638430       -2.7220118887
 H        -2.5010403625       -4.2709822174        0.6070506810
 H        -2.6663151420       -5.8525609667       -0.0287444793
 H        -1.1488272245       -5.0254186923       -0.3680136596
 H        -5.8119074941       -1.3356822352       -0.6298904650
 H        -6.6857892501       -2.4318416924       -1.7582748933
 H        -5.3383219183        2.4268911178       -2.7401853745
 H        -7.0912843374        3.1889069526       -2.6313146286
 H        -6.9407636401        1.1462518432       -4.0347122129
 H        -8.3855110676        1.8778820133       -3.5869002494
 H        -8.5331951754        0.2143624879       -4.1171870141
 H        -9.2672473627        0.7506465285       -0.8450997372
 H        -9.4207892370       -0.5122100965       -2.0051828024
 H        -8.4690330380       -0.6441696083       -0.5418054887
 H        -5.7514366412        4.8384430538       -1.4777956795
 H        -6.1897533752        3.9107248697       -0.1034620287
 H        -0.3177303059        4.6749312832       -0.2620910650
 H        -0.3420069957        3.0608345259       -0.6743801469
 H        -1.5225354444        3.9927845605       -1.5111635132
 H        -4.3192551997        6.0764626352        0.2661234871
 H        -2.8836732902        5.9671695761       -0.7103623781
 H        -2.8067139111        6.0217558478        1.2011544196
 H        -5.3205004249        3.6609104434        1.6517890281
 H        -3.6955118464        2.8502384193        1.9780818079
 H        -3.9329539072        4.6278452020        2.3736942215
 Na        0.5968739684        2.0245713702        2.2735676422
