155

 C         2.4918414650        5.7623887914        3.9963071140
 C         1.5573224919        4.5541224389        3.9004591891
 C         0.5065795484        4.2215193971        5.1262018087
 C         0.6492180023        2.7314491313        5.5496503060
 C         1.4926134236        2.3563542376        6.7564574383
 C         0.6632510624        5.1400258789        6.3033677399
 C        -0.8705214566        4.4633076505        4.5084387123
 O         1.4119020785        4.1362334623        2.7942195084
 O         0.2932949675        1.8169300096        4.8030701994
 C         2.4642625761        1.2612168031        6.4186651330
 C         3.4523599840        1.6950987569        5.3740149775
 C         4.7015943462        0.6948510585        5.1161602697
 C         3.9369881118       -0.4708821597        4.2301888613
 C         4.1900160976       -0.5825056273        2.7029668069
 O         3.2760528998        2.7258829045        4.7008823145
 O         3.3330256954       -1.3670031325        4.7006844292
 C         5.7474693377        1.4705065118        4.2524499067
 C         5.2561714311        0.0286370149        6.3669957741
 C         3.0317508445       -1.4106695382        2.0618246500
 C         1.7551417437       -0.6410923727        1.8350924381
 C         0.7521384809       -0.9850094534        0.6711167942
 C         1.0504863935        0.2203917049       -0.3007977973
 C         1.5046853018       -0.0275338591       -1.7932005403
 C         0.8688313979       -2.4601441485        0.0659663282
 C        -0.6984553229       -0.9122848320        1.3555459882
 O         1.5299096669        0.2296635314        2.6072177644
 O         0.9708551263        1.3786676952        0.1187535047
 C         2.7831719985        0.8052840866       -1.9596852927
 C         4.0296707078        0.2482336246       -1.1962956354
 C         5.1152371755       -0.5562734856       -1.9441659660
 C         4.3824993016       -1.9478868022       -2.4205696451
 C         3.7908508507       -2.0795895904       -3.8360459277
 O         4.1386189770        0.3733386021        0.0144141746
 O         4.0798013035       -2.7756299525       -1.5875061413
 C         5.6651195508        0.2846400137       -3.1798204640
 C         6.2812702927       -0.7282637464       -0.9737008050
 C         3.3754502870       -3.5836432102       -4.1941901123
 C         2.1467155211       -3.5587913607       -5.2188912212
 C         1.3918598277       -4.8990047996       -5.4770151953
 C         0.0162295043       -4.7291990211       -4.4956097088
 C        -0.8555996571       -3.5991016210       -4.9458585554
 C         0.9512819304       -5.0510799211       -6.9720345019
 C         2.0414331032       -6.1282860149       -5.0119020466
 O         1.7351611715       -2.5712264646       -5.7617045694
 O        -0.1528422811       -5.4783779085       -3.5745443470
 C        -2.2665169057       -3.9065172925       -4.2902738044
 C        -2.2598217163       -3.6773872121       -2.7410209845
 C        -3.1102199407       -4.6738271353       -1.9128962566
 C        -4.2566602554       -3.7747200311       -1.2312625081
 C        -4.4970160698       -2.3941166825       -1.7826062693
 O        -1.7958287425       -2.6328051166       -2.2427560474
 O        -4.9029519953       -4.2721982056       -0.3153484620
 C        -3.9150324820       -5.6919721683       -2.8114877011
 C        -2.4904714244       -5.5643349883       -0.8093335282
 C        -5.9188511840       -1.8509810403       -1.4591825218
 C        -6.1414129156       -0.6408197548       -2.3573077154
 C        -7.4424492461        0.3954813027       -2.2694340875
 C        -6.9416221621        1.5288317872       -1.3359434216
 C        -6.0560252804        2.6059702133       -2.0354443354
 C        -7.5998482901        0.8116687331       -3.7571959428
 C        -8.6457980473       -0.3496916010       -1.6443377395
 O        -5.1830988699       -0.2951006041       -3.0506270336
 O        -7.2634122177        1.5903504275       -0.1520402139
 C        -5.5972763345        3.6910730213       -1.0998753358
 C        -4.0156583245        3.5927830110       -0.9362865674
 C        -3.4222024811        4.0589642684        0.4903457167
 C        -2.0364109610        3.3387282824        0.6918890911
 C        -0.7839813360        3.9040221517        0.0935464828
 O        -3.3537877152        3.2874911686       -1.8947240611
 O        -1.9575157486        2.4190757589        1.4453128043
 C        -3.1322607155        5.5346728044        0.5267723138
 C        -4.4801796779        3.6910705522        1.6384710469
 H         2.0407665792        6.7756001247        4.1708658668
 H         3.1683802875        5.6843193805        4.9074797579
 H         3.1535320535        5.9751100492        3.1362211907
 H         2.0133300731        3.3041217772        7.1091654660
 H         0.8533071208        2.0858689280        7.6696319168
 H         1.6571609052        5.2844304998        6.6627928130
 H         0.0900338609        4.8581702048        7.2233731290
 H         0.3867196291        6.1674518632        6.1349168510
 H        -1.4403129863        3.6465161087        4.0078878184
 H        -1.5555192879        4.8680118438        5.1633091048
 H        -0.7680332325        5.1894361254        3.6921665574
 H         3.1791583619        1.1458355817        7.2826112455
 H         1.9675569290        0.4374683889        6.0526552118
 H         4.2989769437        0.3637663823        2.2312474893
 H         5.0950294638       -1.0814429847        2.4128863040
 H         5.3037681783        1.6379803066        3.2875874336
 H         6.7364155190        0.8805223100        4.0888396973
 H         6.1188581704        2.3300031686        4.7658741288
 H         4.4658499678       -0.6001857774        6.7988728382
 H         6.0095148278       -0.7071846024        6.0474801547
 H         5.6920750283        0.8403205217        7.0409999154
 H         2.8006274476       -2.2660794155        2.7505569849
 H         3.4266480919       -1.8647142302        1.1400638682
 H         1.7664137813       -1.0726283363       -2.0017917392
 H         0.7751158677        0.4389836579       -2.4521356551
 H         0.3307865876       -2.5858443466       -0.8500401499
 H         0.6073452066       -3.2591147412        0.7114928904
 H         1.8570587482       -2.6651292824       -0.2580465286
 H        -0.5785640662       -1.0558258581        2.4218095078
 H        -1.3111181419       -0.0147412652        1.1862100067
 H        -1.3289401466       -1.7038973748        0.9855282547
 H         3.1326393368        0.8196950874       -3.0709728734
 H         2.4442330638        1.7548473280       -1.6345687762
 H         2.9328316726       -1.4480432555       -3.7982218686
 H         4.4111561108       -1.7469053965       -4.6804899704
 H         6.0618596597       -0.2665263566       -4.0611148704
 H         6.4449603563        0.9125506468       -2.7386710060
 H         4.9143832762        0.9168702383       -3.5535207025
 H         7.3188668510       -1.0079912590       -1.4487161872
 H         6.5321700073        0.2744176894       -0.5953531332
 H         6.0472551363       -1.3822526822       -0.1790194538
 H         2.7616788279       -3.9186522855       -3.3214726648
 H         4.2184587851       -4.1582618866       -4.4590904492
 H        -0.4060849888       -2.7281228321       -4.5171893485
 H        -0.8519282670       -3.5143192945       -6.0102692564
 H         0.4698008381       -4.1293245557       -7.3663395304
 H         0.2929193096       -6.0013977388       -6.9334177441
 H         1.8904330436       -5.0768860986       -7.5253880777
 H         1.5815862545       -7.0486410555       -5.1296030817
 H         3.0219934292       -6.2471101832       -5.3928233539
 H         2.1389333976       -6.1345565393       -3.8880751416
 H        -3.0355525423       -3.2342333926       -4.6626840325
 H        -2.4795135833       -4.9496664498       -4.6256090296
 H        -3.7577490090       -1.7305332182       -1.4737652548
 H        -4.2601428235       -2.4721287829       -2.7899594978
 H        -4.5278870534       -5.2714820571       -3.5722128460
 H        -4.6743321392       -6.3318764841       -2.2886418117
 H        -3.1501114916       -6.3356041216       -3.4285322526
 H        -1.7719758456       -4.9996569852       -0.2575168175
 H        -3.2578459662       -5.9474397660       -0.1752330244
 H        -1.8317573785       -6.2757353468       -1.2652559548
 H        -6.0110830857       -1.5981225291       -0.3904412489
 H        -6.5962250860       -2.6544926562       -1.7023732446
 H        -5.1508412450        2.2202450533       -2.5131685333
 H        -6.7636960557        3.0554361098       -2.8689941297
 H        -6.7160028392        1.2318266271       -4.1687620617
 H        -8.3677420878        1.6451120065       -3.8385492457
 H        -7.8830168598       -0.0230286477       -4.3487872233
 H        -9.3589717083        0.2728757854       -1.1302492130
 H        -9.2474841919       -0.9941545249       -2.2628473295
 H        -8.2999073776       -1.0962153071       -0.9671349597
 H        -5.7687361090        4.6787333820       -1.4948110365
 H        -6.2180726314        3.7730723320       -0.2204195915
 H        -0.9621173461        4.4003760416       -0.8572824378
 H        -0.5004272814        4.7359617063        0.7160407758
 H         0.0255755029        3.1321265573       -0.0943967149
 H        -4.0634518581        6.1640785856        0.4591955825
 H        -2.4440137213        5.7269336853       -0.3071720410
 H        -2.5348290524        5.8542605165        1.3906670661
 H        -5.4052529080        4.2919079941        1.4187778710
 H        -4.8183159639        2.6150231987        1.4453273896
 H        -4.1072140053        3.6902042338        2.6412934146
 Na        0.0727474640        2.1724871935        2.3889654708
