155

 C         2.6521099323        5.3056057803        3.9222187304
 C         1.4045668521        4.4042924584        3.8940402772
 C         0.5334204696        4.0806312307        5.1555836616
 C         0.8561853506        2.4750616661        5.4080431637
 C         1.3175608933        1.8248322907        6.7177594385
 C         0.9193765727        4.8255543773        6.5276027438
 C        -1.0066568974        4.2329897080        4.7324679161
 O         1.0943237175        3.9668635173        2.8204525192
 O         0.6023076759        1.6173331846        4.5269863721
 C         2.4806575133        0.8257554407        6.5047507029
 C         3.5813296501        1.4520736860        5.6147499860
 C         4.6490071502        0.5105145623        4.9037175696
 C         3.6803832528       -0.4707487928        4.1738001805
 C         3.0138669714        0.0088125101        2.8390117599
 O         3.5587239203        2.6393933484        5.4379598691
 O         3.4907585843       -1.5575532898        4.6948651590
 C         5.6294216905        1.4050336522        4.1996182130
 C         5.4849739026       -0.3240201150        6.0529535181
 C         2.4370928443       -1.1252576011        1.9408592529
 C         0.9244767650       -0.8801502111        1.5800237709
 C         0.5245538325       -1.0771754548        0.1341057064
 C         1.0084271176        0.2878317272       -0.5294431549
 C         1.7876278459        0.2447608963       -1.7958589940
 C         1.1319698289       -2.4145470708       -0.4813809717
 C        -1.0091064804       -1.0204539717       -0.0375177659
 O         0.1837804366       -0.3336898205        2.4027179106
 O         0.6485444331        1.3533533222       -0.0245318791
 C         2.7033129053        1.4234103300       -2.0726225821
 C         4.1293282476        1.1511615229       -1.5387729679
 C         5.0940660511        0.1796882290       -2.3414737265
 C         4.6180592338       -1.2451279448       -2.1783830227
 C         4.8352506732       -2.1931844581       -3.4494430424
 O         4.4401891134        1.5726357222       -0.4648122809
 O         4.2424851460       -1.7543751285       -1.1628714029
 C         5.3215945550        0.8209974884       -3.7341383536
 C         6.5186513250        0.0330292514       -1.6173142804
 C         4.4451844166       -3.6349995765       -3.5572973701
 C         2.8968541364       -3.6906332003       -4.0286752638
 C         2.3087222890       -5.0435930488       -4.6154717901
 C         0.7809392706       -5.1702366962       -4.3728874407
 C        -0.1688911753       -4.0520077446       -4.6548647086
 C         2.4911289125       -4.8677644630       -6.1499377830
 C         3.0824219430       -6.2199087363       -4.1207676170
 O         2.3001985729       -2.6129490408       -3.9204380851
 O         0.4054658709       -6.2117453106       -3.9293908219
 C        -1.6002679124       -4.4747597237       -4.3637408731
 C        -2.1489754138       -4.1967954080       -2.9964645180
 C        -3.5159834692       -4.9601374443       -2.5004383469
 C        -4.4549629596       -3.9528448125       -1.7880201538
 C        -4.8181615560       -2.6993254551       -2.5417089803
 O        -1.6362073437       -3.4625595527       -2.1874980897
 O        -4.8130018117       -4.0462178163       -0.6206254692
 C        -4.2438595945       -5.6891450587       -3.7068153142
 C        -3.2471195290       -6.0510349200       -1.4210067563
 C        -5.9205175603       -1.8954359494       -1.7850876907
 C        -6.0967776811       -0.4667853548       -2.5113589421
 C        -7.4382293291        0.4064604992       -2.2994530403
 C        -6.9934632525        1.7151957490       -1.3914985731
 C        -6.2444165317        2.7820779176       -2.0946012926
 C        -7.9052886328        0.6568501848       -3.8005208981
 C        -8.5404962898       -0.3387249326       -1.5437780674
 O        -5.2897264150       -0.1280385599       -3.3201512213
 O        -6.9546197457        1.5681178949       -0.1692823215
 C        -5.5247202343        3.9664113517       -1.3167383255
 C        -4.3422625285        3.5459414378       -0.5313036979
 C        -4.0654260930        4.2462722428        0.9159155273
 C        -2.6120037012        3.9448732949        1.1516303518
 C        -1.6012425144        4.8725233806        0.5882076244
 O        -3.5250354343        2.7841138135       -0.9755498777
 O        -2.2871243728        2.9061034541        1.7563695087
 C        -4.3628568395        5.7586881984        0.8190970610
 C        -4.8795251258        3.5353763054        2.0073053316
 H         2.4483323342        6.2469613587        4.2799074927
 H         3.4244539147        4.9664379413        4.5698132508
 H         3.1434833834        5.3456884226        3.0293766008
 H         1.7559527601        2.5654277939        7.3130268310
 H         0.4216430453        1.4456401119        7.1510474207
 H         2.0166844508        4.7416503623        6.5823319603
 H         0.5370534580        4.2151245482        7.2929275842
 H         0.6087962836        5.8938365233        6.5634550845
 H        -1.0880262901        4.1338975191        3.7134919314
 H        -1.6234186745        3.4626041319        5.1879764209
 H        -1.3241335913        5.1831629792        5.0161875665
 H         3.0223954714        0.6956813581        7.4913058053
 H         2.2878723042       -0.2602790587        6.2200866274
 H         2.2141232590        0.7805848929        3.0594700587
 H         3.8021406402        0.4952501914        2.2372013683
 H         5.1628992494        2.0016898197        3.3855905672
 H         6.5049630684        1.0730962947        3.7959619541
 H         6.0086784571        2.1250296798        4.9402429451
 H         4.6638375507       -0.7296982542        6.6937179625
 H         6.0804706885       -1.1436568001        5.5782778036
 H         5.9824122430        0.4310666411        6.6477628004
 H         2.5507540235       -2.1004332729        2.4399706456
 H         2.9342206968       -1.1355081965        0.9923997324
 H         2.2495436354       -0.6773924440       -1.9220335671
 H         1.0764843641        0.1442986958       -2.7130645876
 H         0.4753107913       -2.6759095280       -1.3384945304
 H         1.1920838107       -3.2819551567        0.2298173509
 H         2.2030091895       -2.2776039119       -0.7656365674
 H        -1.3562933902       -1.0987043427       -1.0372176824
 H        -1.4628466568       -1.7756453668        0.5015503662
 H        -1.2729083691       -0.1119840435        0.4401423866
 H         2.7190579420        1.7929887721       -3.1173618461
 H         2.3465503774        2.2515677251       -1.5094329136
 H         4.5015211768       -1.7146242284       -4.4086624906
 H         5.9744080264       -2.1290142009       -3.5669801744
 H         6.2172355756        0.3927881600       -4.2473855768
 H         5.5573713643        1.8523077844       -3.5427631784
 H         4.4025779310        0.7217376685       -4.3890110168
 H         7.0360896822       -0.7532689547       -2.1278535368
 H         7.1571105761        0.9579874613       -1.6550499393
 H         6.3748041631       -0.2769250674       -0.5368287873
 H         4.6040173893       -4.1420634542       -2.5720608820
 H         5.1343548609       -4.1535022524       -4.2151967444
 H         0.1424778644       -3.1772443775       -3.9904618878
 H        -0.1365498153       -3.7164837273       -5.7028699432
 H         1.5965775521       -4.5100500145       -6.5914925904
 H         2.6290488065       -5.8541290557       -6.5843587013
 H         3.4256309518       -4.2872279501       -6.5538525338
 H         2.5648251524       -7.1493835131       -4.4459634150
 H         4.1549948848       -6.2524079919       -4.4733941147
 H         3.0056872325       -6.2568658459       -3.0680234482
 H        -2.2500472730       -4.1568794660       -5.2491974193
 H        -1.6360069907       -5.5394078227       -4.4922517234
 H        -3.8173166955       -2.1504198311       -2.6056919242
 H        -5.2586036858       -2.9049724395       -3.5945560933
 H        -4.0136389111       -5.0046708980       -4.5539622504
 H        -5.2774243661       -5.8444439442       -3.4649117044
 H        -3.8028504407       -6.5367260358       -4.0375684714
 H        -2.9345874299       -5.5810764288       -0.5083520563
 H        -4.1990072714       -6.4425902638       -1.1653883801
 H        -2.5817861402       -6.8561381649       -1.6857261521
 H        -5.6840442660       -1.8231011287       -0.7210872417
 H        -6.8593702745       -2.4692992708       -1.8816664528
 H        -5.4846802951        2.3082204107       -2.7495989652
 H        -6.9781429684        3.2077982963       -2.7759108864
 H        -7.1255039691        1.2267308645       -4.3043943958
 H        -8.7619633263        1.3012576078       -3.8347304692
 H        -8.1738462144       -0.2786576993       -4.2611894679
 H        -9.5428515153        0.0765818878       -1.7430121747
 H        -8.5868112497       -1.4013403894       -1.7548168265
 H        -8.4493700027       -0.1088136343       -0.4796437878
 H        -5.1078934672        4.6582447736       -2.0208441267
 H        -6.3126901456        4.3530525578       -0.6118944833
 H        -1.7716480977        5.1572826231       -0.4863961939
 H        -1.4168620124        5.7964482202        1.2260172182
 H        -0.5816911838        4.4479763722        0.5726612959
 H        -5.4085023335        5.9318019468        0.8428527661
 H        -3.9649494865        6.3445555727       -0.0185654661
 H        -4.0026861964        6.3736979682        1.6849275010
 H        -5.9205842426        3.6305421143        1.8754714160
 H        -4.6590623310        2.5397880755        2.1547344208
 H        -4.4814537612        4.0178913128        2.9135099260
 Na       -0.1148880092        2.0652415591        2.0253055640
