155

 C         2.6574435380        5.2401057171        4.1955452004
 C         1.5606512324        4.2921864997        3.9435245117
 C         0.5915670707        3.9666233420        5.1144733806
 C         0.7708300047        2.4292878283        5.2645230843
 C         1.2670829072        1.8241787205        6.5580118082
 C         0.8701238369        4.8837440170        6.3845732786
 C        -0.9591186009        4.1312962777        4.8209674818
 O         1.2791204781        4.0023961382        2.7492100451
 O         0.5460517300        1.7293074945        4.3398667390
 C         2.3311605265        0.7833831985        6.3358541836
 C         3.5598509085        1.4281233242        5.5511789803
 C         4.6707997163        0.3630695974        4.9184243479
 C         3.7266428673       -0.5148582491        4.1257293024
 C         2.9180867570        0.1123476662        2.9357714127
 O         3.5180945769        2.6481463650        5.2618586940
 O         3.5930083071       -1.6730893747        4.5128425823
 C         5.6519170164        1.1972064621        4.1007134205
 C         5.4985142986       -0.4465568406        6.0818285837
 C         2.2840950193       -1.0656927165        2.1952621496
 C         0.8912447086       -0.6996185083        1.6576381182
 C         0.3950739906       -0.8988264676        0.0492377749
 C         0.8363119039        0.4425907936       -0.6512426296
 C         1.6934224294        0.4099262417       -1.9803386009
 C         1.0268459584       -2.2219135353       -0.5002357521
 C        -1.2022357146       -0.9612531554       -0.0084931951
 O         0.1101931478       -0.3338747181        2.5049003387
 O         0.3969947423        1.5372306112       -0.3478232233
 C         2.8016424505        1.5329624060       -1.9941926703
 C         4.1862609637        1.1833155095       -1.4176325730
 C         5.1621043800        0.2933626117       -2.2589304924
 C         4.8215940636       -1.2415856133       -2.2995101632
 C         5.2097335136       -2.1116183285       -3.4398382600
 O         4.5260687953        1.7142292778       -0.3755247868
 O         4.2153792503       -1.6572615989       -1.2996351312
 C         5.2051092666        0.7779219421       -3.8076522998
 C         6.5307712421        0.6240759882       -1.6456966655
 C         4.5265572909       -3.5489571951       -3.4225111267
 C         3.1133032750       -3.6547427223       -3.8319362700
 C         2.5137354489       -4.9872345737       -4.6011672016
 C         0.9719087171       -5.2813883546       -4.3228210270
 C        -0.0547986717       -4.1388130885       -4.5663699365
 C         2.7866130332       -4.9393906981       -6.0903132396
 C         3.2930690546       -6.3054381979       -4.0134567473
 O         2.2619643936       -2.9042630392       -3.3751419953
 O         0.6487420479       -6.3512659937       -3.8868665681
 C        -1.5784957864       -4.6517625332       -4.3616363909
 C        -2.2170927321       -4.2759911639       -2.9875590490
 C        -3.5053190480       -4.9891892688       -2.5359713743
 C        -4.4045703396       -3.9222794160       -1.8038421188
 C        -5.0734223617       -2.8040776537       -2.6783949238
 O        -1.5987978715       -3.4597227219       -2.2810775768
 O        -4.7248927332       -4.0186521030       -0.6611263787
 C        -4.3471947551       -5.4279529673       -3.7527068905
 C        -3.2051293658       -6.1595895801       -1.6065368971
 C        -6.1451976580       -1.9694043285       -1.9865376306
 C        -6.1625651121       -0.5731446437       -2.6034469957
 C        -7.3952337593        0.3800189766       -2.3272822794
 C        -6.7992444390        1.5305419656       -1.4763321387
 C        -6.3540993626        2.8751762948       -2.2172016362
 C        -7.9650850887        0.9464242682       -3.6923697320
 C        -8.4998551950       -0.2186399336       -1.4565290849
 O        -5.2876954331       -0.0209122669       -3.2602589375
 O        -6.7473507197        1.6313301275       -0.2658566029
 C        -5.6900311307        3.9062675130       -1.2784476814
 C        -4.4926302207        3.4541359693       -0.4628829065
 C        -4.1671441030        4.1366548798        0.9233641688
 C        -2.5882322811        3.8191904254        1.2297226475
 C        -1.5219054876        4.7886908635        0.8859480813
 O        -3.7915977067        2.5418707689       -0.9055962972
 O        -2.3092365158        2.7962322037        1.8153362425
 C        -4.3112700059        5.6061178328        0.9429896636
 C        -5.1855394507        3.5447510998        1.9079620262
 H         2.1522524568        6.2743657558        4.3879667179
 H         3.2305054133        5.1426885307        5.1567600706
 H         3.4719859290        5.3746060131        3.3732594371
 H         1.6016052789        2.6640331221        7.2423055846
 H         0.4128129343        1.2998618902        7.0777735630
 H         1.8507327389        4.7095848789        6.8486786893
 H        -0.0851296319        4.7825903777        7.0217028653
 H         0.8283246583        5.8914322219        5.9961894497
 H        -1.1954527381        3.5210828260        3.8820142789
 H        -1.5371666859        3.6645235032        5.6718139858
 H        -1.2193296550        5.2424545185        4.6634423444
 H         2.7165574044        0.4467747516        7.2928163021
 H         1.9540997871       -0.1215691566        5.9814134216
 H         2.1259766631        0.7296231723        3.2957513876
 H         3.6072656473        0.6990423309        2.3231470966
 H         5.2862556593        1.3276610128        3.1085553983
 H         6.7655323136        0.9628893744        3.9140478465
 H         5.8722714150        2.1455035865        4.5450325266
 H         4.8788734443       -0.6987921315        6.8743079751
 H         5.8390591800       -1.3188368783        5.6472512431
 H         6.2358697411        0.2744005539        6.3745193854
 H         2.1171435447       -1.7657619015        3.0059875475
 H         2.8630345995       -1.5683221139        1.3988134124
 H         2.0294016646       -0.6299156775       -2.3638396607
 H         1.1276881508        0.7317425447       -2.8048337667
 H         0.8350066682       -2.4648594361       -1.5029624224
 H         0.5498001852       -2.9903606629        0.1268346815
 H         2.0806820672       -2.2690660245       -0.1788670301
 H        -1.5350363913       -0.5022546129       -0.9556151270
 H        -1.5104987639       -2.0263754840       -0.1430334521
 H        -1.6301985988       -0.6031927822        0.9538894986
 H         3.0214134767        1.8506765488       -3.0144676884
 H         2.5019489159        2.4696333219       -1.4645924854
 H         5.0111113523       -1.5776614193       -4.3853450988
 H         6.2657346316       -2.3238044461       -3.4330606829
 H         5.9891977730        0.2076619308       -4.3026819321
 H         5.5321715993        1.8469197893       -3.9169476574
 H         4.3027870444        0.5439052378       -4.3116228609
 H         7.3469068067        0.2291295151       -2.1945952095
 H         6.7136266167        1.6448592152       -1.6925227901
 H         6.5583662810        0.2258768526       -0.6414702553
 H         4.6630474561       -3.9950446168       -2.4491364679
 H         5.2120567296       -4.1655474847       -4.0546416767
 H         0.1845415058       -3.3272429964       -3.9006447237
 H        -0.0067685287       -3.7010188284       -5.5917978025
 H         1.9278547197       -4.5623307207       -6.8412278642
 H         3.1091006278       -5.9288554690       -6.4749343370
 H         3.5936200916       -4.2645761073       -6.2883358740
 H         2.8880441725       -7.2346960145       -4.3958752385
 H         4.3014856577       -6.2242977874       -4.3617781561
 H         3.1837856776       -6.4503187374       -2.8789376771
 H        -2.1256896111       -4.2629635868       -5.1787005932
 H        -1.5902585297       -5.7565194961       -4.6400794242
 H        -4.2815427331       -2.1444224696       -3.0006391394
 H        -5.4385760005       -3.2518412204       -3.5728938455
 H        -4.5970037501       -4.6250579362       -4.5360518372
 H        -5.2521045997       -5.7642735997       -3.2934426672
 H        -3.8136776430       -6.2793765345       -4.2524063392
 H        -2.3510061543       -6.0332985260       -0.9128111976
 H        -4.1105422488       -6.3464247270       -0.9789663675
 H        -2.9319109102       -7.0641686981       -2.1992028429
 H        -5.8373534291       -1.9117814967       -0.8989664537
 H        -7.1911939041       -2.3303054504       -2.0747669134
 H        -5.7343713369        2.7161967437       -3.1036650067
 H        -7.2393358740        3.5112555287       -2.5887990872
 H        -7.1873071876        1.4307538907       -4.2673060271
 H        -8.7056623636        1.7847660032       -3.5069531612
 H        -8.4084152611        0.0781056849       -4.2260291671
 H        -9.2649343596        0.4915076289       -1.0753441912
 H        -9.0499283854       -1.0030679403       -2.0196218093
 H        -8.0045582461       -0.6987723212       -0.5673219737
 H        -5.2527796607        4.6939527677       -1.9778186103
 H        -6.5182790520        4.2118373805       -0.6878019808
 H        -1.5836606423        5.1914631374       -0.1299532724
 H        -1.4842234640        5.6397844625        1.4851116269
 H        -0.6021360479        4.3027785072        1.0441530019
 H        -5.3347078193        5.9646686321        0.7448245969
 H        -3.6933152170        6.0957518256        0.2378649081
 H        -4.0340438580        6.0930437491        1.8082556048
 H        -6.1253906521        3.7569266111        1.3329774572
 H        -5.2197907308        2.4329177374        2.0221196610
 H        -5.1869546555        3.9443005001        2.8716705215
 Na       -0.0980099111        1.9724336015        2.1534478862
