155

 C         2.9508581658        4.9896015488        3.7403324992
 C         1.6884111885        4.2854429025        3.9208377190
 C         1.1405493739        4.0080926409        5.4233691450
 C         1.1944780776        2.4787851238        5.5620536254
 C         1.9236833883        1.7552072126        6.6635692443
 C         1.9937733938        4.8093713988        6.4807160340
 C        -0.3732608882        4.3612105740        5.3662440302
 O         0.9815695584        4.0050513719        2.9772472059
 O         0.4699761986        1.7889344424        4.8490572708
 C         2.8003627376        0.5269030517        6.2443842373
 C         3.5240205368        0.7919318021        4.9076554479
 C         4.2812067646       -0.4149595879        4.2950180802
 C         3.2339109718       -1.2689609522        3.3365058503
 C         2.6706260415       -0.5274927153        2.0726626470
 O         3.2817169337        1.7529200417        4.2048707300
 O         2.9350882128       -2.2845605848        3.8544634115
 C         5.4202891840        0.0610594423        3.3300091475
 C         4.7529003792       -1.3217622949        5.4288929594
 C         1.6160350119       -1.4033257675        1.4477954893
 C         0.2485765439       -0.6795089179        1.4304542445
 C        -0.5842467675       -0.4586396867        0.1292774551
 C         0.0877104930        0.9776561310       -0.4296186669
 C         1.1290660893        0.9691316233       -1.5072855760
 C        -0.3179488728       -1.6027367429       -0.8892016040
 C        -2.0833824070       -0.2404627380        0.4120067061
 O        -0.1430883060       -0.2099849072        2.4711292169
 O        -0.2224823527        1.9949832906        0.1969369378
 C         2.2191259529        2.1465182563       -1.3219083325
 C         3.6370856925        1.6936634885       -1.0215489449
 C         4.4779591428        0.9685828254       -2.1266159591
 C         4.5921612509       -0.5483677930       -1.6680079455
 C         5.5402525144       -1.5171608251       -2.1902267887
 O         4.2162740366        1.9721586316        0.0031972657
 O         3.8289743144       -0.7385213093       -0.7571544892
 C         3.9467064431        1.0014818759       -3.5820785229
 C         5.9024292809        1.5542111699       -2.0846715481
 C         4.9574551375       -2.9209390420       -2.0354345983
 C         3.9482385225       -3.2257694679       -3.1013143680
 C         3.5616219033       -4.7396042025       -3.2602119825
 C         2.0876514932       -4.9300618319       -2.6509637516
 C         0.9812109613       -4.1199330013       -3.2819117621
 C         3.3786736388       -4.9393339874       -4.7802826285
 C         4.5225309149       -5.6850662749       -2.6821864388
 O         3.3531425025       -2.4538103801       -3.8281079475
 O         1.8422998927       -5.6692843722       -1.7231378701
 C        -0.4084578755       -4.7746021794       -2.9163951901
 C        -1.6082987246       -3.9016163899       -3.4465991209
 C        -2.9519258297       -4.6998190566       -3.8733208386
 C        -3.8288082945       -3.8334414622       -2.7824245850
 C        -4.4669269855       -2.5599099553       -3.4603810723
 O        -1.5180359088       -2.6751194710       -3.4810753190
 O        -3.7925583828       -4.0431743494       -1.5935038548
 C        -3.2832603700       -4.3403731912       -5.3476286225
 C        -3.0745751202       -6.1352108998       -3.3972170851
 C        -5.4942821286       -1.9550084606       -2.4355600664
 C        -6.2745379295       -0.8500818890       -3.2046022091
 C        -7.5180079177       -0.1995190313       -2.5271085864
 C        -6.9457231947        1.1012991942       -1.6753015366
 C        -6.2786053278        2.3574267741       -2.3874565014
 C        -8.4633138215        0.3127073751       -3.6800175200
 C        -8.3609246071       -1.0686582690       -1.6394143114
 O        -5.9009484846       -0.3459010735       -4.2316786817
 O        -7.1761472991        1.1020737097       -0.4582151084
 C        -5.8241307092        3.4976885698       -1.4329516937
 C        -4.5502689386        3.1289918158       -0.5983841946
 C        -4.4912631584        3.4525859555        0.9135879516
 C        -2.9762791734        3.4505985962        1.2957332755
 C        -2.0048235513        4.3261023368        0.4973911598
 O        -3.5528206552        2.6494698146       -1.1105941184
 O        -2.6215254880        2.6419558076        2.1061700729
 C        -4.9418623292        4.9480349214        1.1366845647
 C        -5.2294869385        2.4228538392        1.7791774874
 H         2.9594590975        5.7390013331        4.4765102506
 H         3.7332311721        4.3449572411        3.9502793983
 H         3.2335768883        5.3389191144        2.8372074635
 H         2.6116012884        2.4319625986        7.1817388756
 H         1.1852384563        1.3692452340        7.3246342858
 H         3.0294678934        4.5554485804        6.4173022769
 H         1.5939225576        4.4619983226        7.4826383371
 H         1.7218077054        5.8350961191        6.4588230324
 H        -0.7706558049        3.5784535343        4.7990992740
 H        -0.8421964061        4.2748682751        6.3397541142
 H        -0.6155360372        5.2492545176        4.9085606458
 H         3.5546728057        0.4523723942        6.9693419933
 H         2.1522060672       -0.2295779542        6.0862472610
 H         2.3335277451        0.4546871749        2.5217819060
 H         3.4701773811       -0.2378580836        1.3616470458
 H         5.0401698878        0.8694868728        2.7326177289
 H         5.8720106973       -0.5463714512        2.5833479029
 H         6.3598103768        0.3171515739        3.7320532323
 H         3.8776123121       -1.7482403806        5.8933042924
 H         5.3769312854       -2.1590530395        5.2063465247
 H         5.3030588147       -0.7417587979        6.2011269705
 H         1.3380531850       -2.2458899970        2.0913692206
 H         2.0059109699       -1.8602113026        0.5147390298
 H         1.7395198774        0.0152079462       -1.5477582327
 H         0.7732932854        0.9356819916       -2.4451771145
 H        -0.8607045722       -1.5056861202       -1.8518408479
 H        -0.8290476470       -2.5480232022       -0.4528618819
 H         0.7801587016       -1.8091788010       -1.0498990471
 H        -2.6527347541       -0.2535425592       -0.5953418562
 H        -2.5351454146       -0.9782076570        1.0818229074
 H        -2.2642228291        0.7629795767        0.8600521751
 H         2.1898445533        2.6307027633       -2.2742071947
 H         1.8088187782        2.9589840990       -0.6055931301
 H         5.8275613361       -1.3463504962       -3.2688582861
 H         6.4974548021       -1.3126893537       -1.6755920152
 H         4.4699399492        0.4242203532       -4.2926935884
 H         3.9749433612        2.0590534633       -3.9490371062
 H         2.9548482414        0.6361875528       -3.6319340306
 H         6.5931092629        1.2274838268       -2.8468083779
 H         5.8461761882        2.6499423949       -2.3703781070
 H         6.3425404203        1.3984873005       -1.1101039988
 H         4.5004171396       -3.1755813696       -1.0841651452
 H         5.7723862713       -3.6625425186       -2.2511821721
 H         0.9698297629       -3.0646922423       -2.8913157614
 H         1.0408578054       -4.0663700836       -4.3690369243
 H         4.0049276170       -5.7521638987       -5.1943224839
 H         3.5614235427       -4.0369520589       -5.3905235028
 H         2.4199408776       -5.4136556895       -5.3034923758
 H         4.3056433903       -6.6840474379       -2.9621565986
 H         5.4541581768       -5.3302323812       -3.0415071204
 H         4.3458085653       -5.6799304778       -1.6036250915
 H        -0.5889290212       -5.8853885664       -3.1084382787
 H        -0.4908444360       -4.7827093758       -1.8418888330
 H        -3.7292744484       -1.8091824066       -3.5256054690
 H        -5.0260778988       -2.9091248329       -4.2987660460
 H        -3.3536511882       -3.3140458250       -5.4918432127
 H        -4.2976907133       -4.7181040230       -5.5753805214
 H        -2.7035257173       -4.8023699374       -6.0523830994
 H        -3.4449182316       -6.2451138146       -2.3584399314
 H        -3.7934679639       -6.7056578714       -4.0373217359
 H        -2.0933331043       -6.6420754886       -3.4670393840
 H        -4.9891350364       -1.4025543444       -1.5981285702
 H        -6.2910489575       -2.6134720765       -1.9424660859
 H        -5.3502129862        2.0985098653       -2.9270971712
 H        -6.9909440463        2.7512248315       -3.1991487293
 H        -7.8895778068        1.0430946839       -4.2019900948
 H        -9.3704011475        0.8468685604       -3.3041106803
 H        -8.6066913322       -0.5169866454       -4.4018362867
 H        -9.0698605401       -0.4172204797       -1.1669485392
 H        -8.9448655874       -1.7875660660       -2.2244220593
 H        -7.6852801333       -1.5462244233       -0.9381886955
 H        -5.6473854196        4.4100992233       -2.0585781880
 H        -6.6766421787        3.7256657841       -0.6895864345
 H        -1.2812921243        3.6755528332       -0.1150324341
 H        -2.3752886543        5.2293803498        0.0592917379
 H        -1.2698657284        4.7289223536        1.2206215913
 H        -6.0327059891        5.1609896613        0.8684039308
 H        -4.3299984952        5.4328829331        0.3511814249
 H        -4.6632900249        5.4136481598        2.0856272868
 H        -6.3368377086        2.4960535175        1.5830868951
 H        -5.0384180976        1.3693579192        1.5422269093
 H        -4.8627027187        2.5192151528        2.7574738238
 Na       -0.5735690122        2.0322622138        2.6788311205
