155

 C         3.3082712932        3.8304337827        3.4072974728
 C         1.8037006824        4.0100412934        3.9363137863
 C         1.4268635383        4.0804303300        5.3593126884
 C         1.0310709703        2.4356709134        5.5883412497
 C         2.0882174549        1.5459360598        6.1793676217
 C         2.6750811304        4.5620832691        6.1402888927
 C         0.1491382506        4.9138518883        5.5465890501
 O         0.9530722968        4.1939680562        3.0412358927
 O        -0.0552347657        1.9779362362        5.2940240069
 C         2.3946931349        0.1894645564        5.4979466770
 C         3.6560445655        0.2692446015        4.6836782179
 C         4.0154868219       -0.8968280795        3.7204414852
 C         2.7852821675       -1.7710753793        3.5288881473
 C         2.0101896343       -1.9713461230        2.1920477437
 O         4.3789267637        1.2880949369        4.8056698713
 O         2.4096819275       -2.3891654086        4.5147674402
 C         4.5646595540       -0.2104962744        2.5029880293
 C         5.0907373744       -1.7610455041        4.4463094874
 C         0.4909932428       -1.8630092906        2.4349436390
 C        -0.0854168244       -0.5207101246        2.0472631630
 C        -0.6692562679       -0.3953812455        0.6337591116
 C         0.0527445142        1.0220049883        0.0725755335
 C         0.8132785000        1.0668532266       -1.2453224572
 C        -0.5274696871       -1.5506273272       -0.3715314658
 C        -2.2393717728       -0.0590628937        0.5062164818
 O         0.0612416230        0.3447380358        2.8703764608
 O        -0.0183430808        2.0341977626        0.7587666457
 C         1.8034422421        2.2066167414       -1.5725574019
 C         3.1856530999        1.9714961104       -1.1917745648
 C         4.1964265658        1.2978810928       -2.3125436150
 C         4.2262733989       -0.1506028076       -1.9842521071
 C         5.5167059726       -0.9714490055       -1.8003708531
 O         3.5154941696        2.2184683055       -0.0592265371
 O         3.1702073560       -0.7631637752       -1.8234233543
 C         3.4101417524        1.3030130255       -3.7041967909
 C         5.4631502313        2.1239621480       -2.2360849604
 C         5.1761680801       -2.4418417172       -1.3634391196
 C         4.7550776665       -3.2804206853       -2.6456673382
 C         3.8486573917       -4.4467254307       -2.5285394161
 C         2.4142149311       -3.6744808242       -2.1358163699
 C         1.3475041984       -3.2187855770       -3.2659973208
 C         3.7880103923       -5.3319033431       -3.7523468656
 C         4.0599133559       -5.2857236723       -1.2686736627
 O         5.4712899415       -2.9889734956       -3.6289868243
 O         2.0741131126       -3.5769582605       -0.9833032169
 C         0.2183807563       -4.2108563171       -3.2927387011
 C        -1.0183362022       -3.6721576881       -4.0346862378
 C        -2.2661123118       -4.5690721300       -4.4616698414
 C        -3.4116468582       -3.9565335747       -3.6089071118
 C        -3.8353120926       -2.4456109478       -3.7876773380
 O        -1.0530940854       -2.4469716627       -4.1782842141
 O        -3.8352112698       -4.5407541533       -2.5963371616
 C        -2.5490208164       -4.1485616999       -5.8995266272
 C        -2.0581202034       -6.0444970244       -4.0311454939
 C        -5.3121138549       -2.3814558597       -3.8957084361
 C        -5.8901641624       -0.9063117543       -3.7761928157
 C        -7.3156682458       -0.6159278689       -2.9045804085
 C        -7.0461278744        0.5679632572       -1.8572167419
 C        -6.5825675299        2.0288525641       -2.3135582793
 C        -8.4366210753       -0.2773983626       -3.8486249072
 C        -7.6059518814       -1.9078820802       -2.0037857653
 O        -5.3783390656       -0.0518350335       -4.4617870058
 O        -7.1582266964        0.3424976521       -0.7169993472
 C        -6.3616051285        3.0614396000       -1.1308038103
 C        -5.1624251820        2.7728962449       -0.2458680058
 C        -5.1280875535        3.4891962310        1.1542378828
 C        -3.5284231832        3.6432198234        1.4922917660
 C        -2.6274663573        4.4641055380        0.6452639646
 O        -4.0987992073        2.1754057313       -0.5428853673
 O        -3.1442595979        3.0926288606        2.5593977189
 C        -5.6410364917        4.8935982747        0.8688115620
 C        -5.7362244806        2.6510504667        2.3340613088
 H         4.0453399550        4.6699395467        3.3002606264
 H         3.8853794072        3.1058820707        4.0302013755
 H         3.1958346006        3.5277177071        2.3667609999
 H         3.1016911017        1.9621826835        6.3617139215
 H         1.8747480218        1.2800112438        7.2308076404
 H         3.5656615351        3.9414705077        5.9691707527
 H         2.5693034672        4.6205394835        7.1642829753
 H         2.9160541093        5.6053797882        5.8800168089
 H        -0.7166840768        4.7329419212        4.9429873291
 H        -0.2569906562        5.0270966158        6.5505814532
 H         0.4283047473        5.9322654379        5.2276952256
 H         2.3871727978       -0.6959834601        6.2246090018
 H         1.5459601170       -0.1853364189        4.8314936518
 H         2.2970004219       -1.2786624717        1.4025551544
 H         2.2644130455       -2.9555026093        1.8909655948
 H         4.0400754098        0.5402108170        1.8615205113
 H         5.0637769719       -0.8863504162        1.8138364926
 H         5.5276150651        0.3055116331        2.8135385456
 H         4.6494183670       -2.6037805872        5.0386749681
 H         5.7271336864       -2.3384837401        3.7197341635
 H         5.7415418678       -1.0983921287        5.0406974309
 H         0.3159354003       -2.0443658272        3.4755617565
 H        -0.0994409800       -2.5664885099        1.7965353990
 H         1.3070052979        0.0639722826       -1.4241720998
 H         0.0978621062        1.1150457156       -2.0990369952
 H        -0.6681673985       -1.2785538798       -1.4142762317
 H        -1.1895890447       -2.3310043738       -0.1988321439
 H         0.4325803508       -2.0599628843       -0.4001350480
 H        -2.8926805359       -0.8196995656        0.7067860778
 H        -2.4507062274        0.7410388536        1.1952036467
 H        -2.5000560349        0.2757090971       -0.4987831252
 H         1.7036406121        2.6591680944       -2.5728352327
 H         1.5213469342        3.0195707601       -0.9367542650
 H         6.0795073037       -0.7414560657       -2.7137930796
 H         6.0041859190       -0.5590761637       -0.9490719297
 H         4.1105972755        1.5092928645       -4.5171252061
 H         2.6361816558        2.0185756701       -3.8053692007
 H         3.0995230532        0.2697749587       -3.8818307714
 H         6.1474714120        1.7766743611       -2.9413413443
 H         5.3193842549        3.1106167636       -2.4848057613
 H         6.0284882808        1.9324482064       -1.2778863567
 H         4.3333890051       -2.3025233005       -0.7270648518
 H         6.0815255919       -2.8200932591       -0.8488250916
 H         0.8576968194       -2.2290716194       -3.0741434195
 H         1.7961232065       -3.0973149705       -4.2076747023
 H         4.8318365580       -5.5281939324       -4.1438390603
 H         3.2860866950       -4.8255791525       -4.5800839994
 H         3.4576687478       -6.2371982647       -3.4902422335
 H         3.2056015543       -6.0389567549       -1.2215430492
 H         5.0688064016       -5.8170980495       -1.4022219713
 H         4.0022754084       -4.6123666652       -0.4015308212
 H         0.6648066184       -5.1278944464       -3.7224283818
 H        -0.0615741849       -4.3181906843       -2.2565184498
 H        -3.3917242079       -1.8482385309       -2.9151326521
 H        -3.4111580280       -1.8281281684       -4.5864590036
 H        -2.3648694099       -2.9864919863       -6.0784765992
 H        -3.3480909440       -4.6327344665       -6.3944694478
 H        -1.6627094444       -4.4977809033       -6.5664273576
 H        -2.0856576929       -5.9823335513       -2.9309095937
 H        -2.8968100247       -6.6704167717       -4.2773079501
 H        -1.0906982778       -6.4541628944       -4.3334912492
 H        -5.8080726149       -2.8384535841       -3.0866524720
 H        -5.6078864044       -2.8211075450       -4.8425870432
 H        -5.7353243313        1.8954750759       -2.9426719305
 H        -7.3086759457        2.4984358888       -3.0543292618
 H        -8.1659701978        0.1665044817       -4.8100943096
 H        -9.1882320626        0.4399433552       -3.4266199202
 H        -8.9152046748       -1.2013522670       -4.1389782554
 H        -8.4782063489       -1.9615493374       -1.3596576063
 H        -7.7317322399       -2.7831704349       -2.6374564925
 H        -6.7560314490       -1.9630174757       -1.3688502716
 H        -6.2708221353        4.0691897141       -1.5245959417
 H        -7.1958537098        3.0308915002       -0.5524607535
 H        -2.5418085195        4.1802690775       -0.3442436386
 H        -3.1399606130        5.4182148311        0.5507144176
 H        -1.6921828550        4.5600236661        1.2115951729
 H        -6.6968837881        4.7618330541        1.0612306790
 H        -5.2580555803        5.3414985181       -0.0751986089
 H        -5.1649556875        5.4755959606        1.6970154020
 H        -6.7682105738        2.7584300568        2.4252910618
 H        -5.4397667132        1.6348175981        2.1801921962
 H        -5.3750890009        2.9846509842        3.3583130153
 Na       -0.7216018528        2.3889274427        2.9602892499
