155

 C         2.9615362224        4.3522123848        2.5391501991
 C         1.7671469135        3.9290739516        3.2640292138
 C         1.8561352192        4.1032926555        4.9196825245
 C         1.3739648244        2.7031528826        5.4910036978
 C         2.0908999643        1.9614442310        6.6551854530
 C         3.2436420075        4.3869944820        5.3260159233
 C         0.9658909594        5.3053621746        5.2921450008
 O         0.7445734791        3.6147031553        2.6678660028
 O         0.2432855085        2.2942183494        5.2296512592
 C         2.4810182246        0.4844504597        6.3531228074
 C         2.7315494563        0.2301165824        4.8625231076
 C         3.2180069307       -1.0811786467        4.2661850313
 C         1.9851031292       -1.9111699203        3.7286542941
 C         1.6662219851       -1.9069324636        2.2316116340
 O         2.5220645270        1.1959181841        4.1537077219
 O         1.4007989311       -2.6530745012        4.5454309577
 C         4.2701928177       -0.8008524935        3.1127531524
 C         3.8514024944       -1.9780848452        5.3336383697
 C         0.1366421775       -2.2099169525        1.8939446100
 C        -0.6650886135       -0.9719990199        1.7418192637
 C        -1.2388605900       -0.6028968974        0.3375784789
 C        -0.3064848127        0.5442678157       -0.1093190461
 C         0.6993074826        0.4932663023       -1.2657287585
 C        -1.2473215032       -1.7463085629       -0.6852921700
 C        -2.6949068224       -0.1263922562        0.6453627496
 O        -0.8434234306       -0.2044801939        2.7087502557
 O        -0.3157791812        1.5846744145        0.5222116323
 C         1.1845743699        1.9450157091       -1.6419425911
 C         2.6671258928        1.9763222349       -1.3018661451
 C         3.7390371556        1.8679828335       -2.4651789730
 C         4.0630069606        0.3428554163       -2.4957778223
 C         5.2753359422       -0.2243703867       -1.6519075722
 O         3.0446188542        2.0661908962       -0.1516838484
 O         3.5589301576       -0.4882357033       -3.1688023504
 C         3.1751086483        2.4278794843       -3.8121153185
 C         4.9921971195        2.7271847847       -2.2450442268
 C         4.8490984811       -1.5512985631       -0.8151091710
 C         4.8158814584       -2.8482984673       -1.7430548019
 C         3.9681354769       -4.0635450598       -1.4720334205
 C         2.4708140750       -3.5289518890       -1.8362366080
 C         2.0047740294       -3.1133889925       -3.2501403696
 C         4.2491414108       -5.3597394033       -2.3260145851
 C         4.0015617053       -4.5107425420       -0.0084289391
 O         5.5241787705       -2.9034042976       -2.7685837570
 O         1.6497369293       -3.5205375439       -0.9306904074
 C         0.7772964993       -3.9727063942       -3.7160580572
 C        -0.1926557035       -3.1036631317       -4.4018131416
 C        -1.3397264442       -3.8141831758       -5.1349905627
 C        -2.5397135266       -3.9428129698       -4.1615376631
 C        -3.1493318124       -2.7128195621       -3.6043928392
 O        -0.1410176126       -1.8826709850       -4.2422622539
 O        -2.9016455135       -5.0948479939       -3.8193408032
 C        -1.8482163008       -2.8115355603       -6.2545447868
 C        -1.0114468153       -5.1686523737       -5.8682863776
 C        -4.4971860543       -2.2910070303       -4.3938676076
 C        -5.1580719520       -0.9484560074       -3.9190393891
 C        -6.4577877605       -0.9522069943       -2.9671816704
 C        -5.9785283622       -0.0803357056       -1.8584452196
 C        -6.3268490670        1.4807085056       -1.7079523937
 C        -7.7523252269       -0.4237594935       -3.6530496549
 C        -6.7117970210       -2.4064906331       -2.4326413274
 O        -4.6305342377        0.0683991755       -4.3093516484
 O        -5.1890626471       -0.5323419798       -0.9960248640
 C        -6.5792353151        1.8681454373       -0.2374829095
 C        -5.4252035599        2.7032212562        0.1692868307
 C        -5.3467329589        3.0600616166        1.6466831550
 C        -3.9149120986        3.1902316411        2.0864074794
 C        -3.2034048390        4.4884463871        1.5791462395
 O        -4.5866610423        3.2065556830       -0.6167612759
 O        -3.3700371778        2.3190417167        2.6965213469
 C        -6.1737323604        4.3922218101        1.7171521823
 C        -6.0245595367        2.0085894680        2.4950491390
 H         3.1464204200        5.4312924333        2.5328525858
 H         3.9277088546        3.9116700278        2.9143935613
 H         3.1824657997        3.9307840462        1.5275769788
 H         3.0037865233        2.4941444681        6.9020383396
 H         1.4367921837        2.0153227026        7.5327606278
 H         4.0241705618        3.8975478939        4.8115079927
 H         3.3837173059        4.4019804981        6.4525796679
 H         3.4284388932        5.4058845887        5.0385141901
 H        -0.1331372498        4.9964020219        5.1731769931
 H         1.0714659238        5.5451576270        6.3368971684
 H         1.2747482580        6.2187070437        4.6918246787
 H         3.3795797773        0.3585848531        6.8737090148
 H         1.6843880552       -0.1984212274        6.6977752948
 H         2.0529826707       -1.0133851431        1.6954347445
 H         2.2301347394       -2.8244982277        1.9274065328
 H         3.9604377025        0.0884212541        2.4531591886
 H         4.4071326126       -1.7148163889        2.4601095026
 H         5.2319800170       -0.5688622780        3.5784705999
 H         3.0507569880       -2.4351573673        5.9125058441
 H         4.3713189600       -2.7962018348        4.8442392225
 H         4.6090389704       -1.3791174231        5.8761237246
 H        -0.1569474816       -2.7808497623        2.7930117869
 H         0.0868866993       -2.8313564244        1.0522333712
 H         1.4669477411       -0.1726242996       -0.9669595983
 H         0.1106729976       -0.0584357064       -2.1062741763
 H        -1.3811178734       -1.1744583707       -1.6030366704
 H        -2.0582544762       -2.4530465604       -0.5719625794
 H        -0.3160319134       -2.1779143509       -0.7154843262
 H        -3.2475735277       -0.3925032314       -0.2288455806
 H        -2.9931127735       -0.6614781873        1.4791996215
 H        -2.6797419813        0.9125430894        0.7533728632
 H         1.0390451816        2.0595602700       -2.7325296962
 H         0.6727021671        2.7973359800       -1.1435494459
 H         6.0564692579       -0.5410724070       -2.3705424325
 H         5.6849745028        0.6191469208       -1.0275217053
 H         3.9417007443        2.6616509764       -4.5490483657
 H         2.7308188135        3.3571616147       -3.4780137172
 H         2.3860358112        1.8673722524       -4.2978021558
 H         5.7077763161        2.5221423583       -3.0908835908
 H         4.6540696560        3.7659622020       -2.4059411932
 H         5.4858450919        2.5322532201       -1.2700043011
 H         3.9116491700       -1.4097498766       -0.2556037627
 H         5.5312270458       -1.8019508063        0.0049978655
 H         1.8255984301       -2.0615357228       -3.2747192269
 H         2.8202457645       -3.1944966535       -3.9945125635
 H         5.3265994726       -5.2512144383       -2.8820870524
 H         3.4780083699       -5.2941231670       -3.1351486875
 H         4.1708963074       -6.2600286163       -1.7524968666
 H         3.2061448473       -5.2133293035        0.2989251036
 H         4.9843397666       -4.9246049390        0.2456386152
 H         3.8326606206       -3.6179705333        0.7135625804
 H         1.0512827295       -4.7273911316       -4.4627946467
 H         0.2920361171       -4.4515787174       -2.8805311342
 H        -3.3609992489       -2.8515388714       -2.5701097137
 H        -2.5882732443       -1.8479761059       -3.7506182490
 H        -1.7388566130       -1.8323402860       -5.7976033543
 H        -2.7390653861       -3.1490334592       -6.6176282560
 H        -1.2797045702       -2.7757428905       -7.0964356007
 H        -1.1162628173       -6.0253399617       -5.2065532056
 H        -1.9071190382       -5.4077744438       -6.5104764217
 H        -0.1425550234       -5.0987668756       -6.5532595374
 H        -5.2280164135       -3.1055187702       -4.2116704517
 H        -4.2055027580       -2.0283018549       -5.4232318966
 H        -5.3360441733        1.9577730358       -1.9642193751
 H        -7.1608672865        1.8323035362       -2.3201403038
 H        -7.6330898564        0.6266818354       -3.9845869989
 H        -8.5326745911       -0.4188966313       -2.9013740672
 H        -8.0479234944       -1.0974790992       -4.5362384383
 H        -7.6600514016       -2.4535432484       -1.9286125298
 H        -6.9591204503       -3.0606351833       -3.2396661366
 H        -6.0092148324       -2.8761715950       -1.7648817247
 H        -7.5427986131        2.4381805589       -0.0769821174
 H        -6.5999377168        0.8947010730        0.3909896722
 H        -3.1901253387        4.7217457555        0.5249519554
 H        -3.6832227107        5.2782060384        2.0705935674
 H        -2.0933834037        4.5624069019        1.8241789502
 H        -7.2005959400        4.1593790323        1.4015928533
 H        -5.6687931930        5.0985598374        1.0591257377
 H        -5.9621364385        4.7428449007        2.7245621359
 H        -7.0842932853        1.8389055493        2.2104987673
 H        -5.3812935139        1.1324166943        2.5254187756
 H        -6.1182612945        2.3578577568        3.4565307139
 Na       -0.9031524663        2.0979660682        2.8011784596
