155

 C         2.0726131809        3.1678206263        2.3139432808
 C         0.8928197405        3.9130236401        3.1357851772
 C         1.0243802210        4.1923323539        4.6219102714
 C         0.7298638775        2.6540207618        5.2357542133
 C         1.6009354709        2.2285601235        6.4398512975
 C         2.4371646360        4.8434369361        4.9475551703
 C        -0.0688965433        5.0610721431        5.1499362540
 O        -0.2385081992        4.1272789919        2.6239243884
 O        -0.2648230426        2.0086410790        4.8812498968
 C         1.5751643637        0.7096391100        6.6051747225
 C         2.7083398374        0.1512164143        5.7396954372
 C         2.8786455107       -1.3477106211        5.5259709781
 C         1.7804444844       -1.7748709335        4.4187992050
 C         2.1993648512       -1.7147706317        2.9314590136
 O         3.4547151403        0.9729558780        5.1508130085
 O         0.6879780708       -2.1196611115        4.7769475459
 C         4.3596130083       -1.6216784673        4.9739138431
 C         2.6557304439       -2.2007012500        6.7679718231
 C         1.0840465870       -1.9958626217        1.8918357709
 C         0.3233019241       -0.7276237025        1.5602251459
 C        -0.5890274097       -0.6659516718        0.3439913364
 C        -0.2028183448        0.7767905720       -0.3818909818
 C         0.2212997467        0.7479802044       -1.8827387187
 C        -0.3949498754       -1.9433122173       -0.5765689253
 C        -2.1039912346       -0.6864419780        0.8773694519
 O         0.1146812720        0.0590470298        2.4965416235
 O        -0.4048166076        1.7760611113        0.2817614497
 C         1.0326283292        1.9704958566       -2.3411154963
 C         2.4269179131        1.9638756229       -1.8676536225
 C         3.6283450005        1.7602732977       -2.8748469078
 C         4.0037464271        0.3124613646       -2.6427394188
 C         5.1911075705       -0.0834947620       -1.6579566720
 O         2.6978236058        2.0505982160       -0.6730235125
 O         3.2935608354       -0.5488295444       -3.2033663477
 C         3.2904901394        1.8227989260       -4.3583328556
 C         4.6167982675        2.9579091582       -2.4810439742
 C         5.0927149843       -1.4168182972       -0.9538810510
 C         5.1587836500       -2.6471316450       -1.9416769443
 C         4.4238478450       -3.9839440787       -1.5438106297
 C         2.8299271073       -4.0228880243       -2.0667310650
 C         2.4201933824       -3.5066927161       -3.4401787416
 C         5.1734885015       -5.1071250472       -2.3199477448
 C         4.3048289504       -4.0773762041       -0.0383628182
 O         5.6986774393       -2.5042009568       -3.0414350657
 O         1.9233322174       -4.2816916826       -1.2889117063
 C         1.0624101628       -4.0742424747       -3.9612523226
 C         0.0529782244       -2.9038906202       -4.2732881126
 C        -0.9302160895       -3.0126341458       -5.4104608028
 C        -2.3238671511       -3.2937561214       -4.8387492133
 C        -2.9627901361       -2.2359907231       -3.8843290930
 O         0.1550988329       -1.8174346161       -3.7113775770
 O        -2.9187013002       -4.2779226786       -5.2054496199
 C        -1.0359568095       -1.6071996535       -6.0589009244
 C        -0.5055601562       -4.0665850323       -6.5107711093
 C        -4.1651025037       -1.7158528381       -4.6787109556
 C        -5.0203242604       -0.7588985217       -3.9445798395
 C        -6.1995392671       -1.2766444684       -3.1405444193
 C        -5.6525664067       -0.9569116200       -1.5343842927
 C        -5.4474634774        0.5041385025       -1.1931522593
 C        -7.5380461624       -0.4719017580       -3.2811850692
 C        -6.5112103882       -2.8327193998       -3.4400996833
 O        -4.6975726956        0.4276859454       -3.9794835920
 O        -5.5492363054       -1.8215627722       -0.7218124463
 C        -5.8293841394        0.8620022858        0.1905693532
 C        -5.5778129728        2.3375361407        0.4233113666
 C        -5.6552874469        2.9866376779        1.9247256194
 C        -4.1119095166        3.3370198104        2.2384023163
 C        -3.4997955223        4.6345651475        1.7130281065
 O        -5.2786809160        3.0858412330       -0.4314006258
 O        -3.4321208155        2.5752630078        2.8217189646
 C        -6.5917923269        4.2208473867        1.6996576439
 C        -6.3330524876        2.0449709767        3.0089432076
 H         2.7490799088        3.7077617480        1.6435790554
 H         2.7362017071        2.5835299100        2.8852385876
 H         1.6359828907        2.4484795644        1.6257421641
 H         2.6528076684        2.6642485706        6.4270098312
 H         1.0718057115        2.6499813963        7.3748858421
 H         3.1914245752        4.0258378387        4.9294994807
 H         2.2920529425        5.2629945415        5.9409532039
 H         2.6542445741        5.7085179741        4.2523134801
 H        -0.9773413790        4.8898062089        4.5707094971
 H        -0.2862501488        4.7372228166        6.2338074050
 H         0.3001859792        6.0677165528        4.9391215684
 H         1.9251175492        0.5842182265        7.6827142005
 H         0.6454185919        0.2612345329        6.4765505248
 H         2.6073210330       -0.7304318192        2.6704030750
 H         3.0580860060       -2.3771911862        2.8334822984
 H         4.3602310295       -1.2074027389        4.0091720029
 H         4.5297830698       -2.6714993240        4.9393061525
 H         5.0146783477       -0.9090416654        5.5487484615
 H         1.5427053051       -2.1709802907        6.9942250249
 H         2.8795573395       -3.2854718628        6.5556447912
 H         3.1987218020       -1.8313811461        7.6984568303
 H         0.3654221050       -2.7976134202        2.2194795666
 H         1.5849820499       -2.3938942731        1.0079855752
 H         0.8978455371       -0.1799760594       -2.1016209104
 H        -0.6772019866        0.6589523340       -2.4456565985
 H        -0.9830275286       -1.8186844892       -1.5035020260
 H        -0.6873162239       -2.8035904023        0.0023673665
 H         0.7305126917       -2.0239677848       -0.8885102633
 H        -2.8034919878       -0.2390928195        0.1220527853
 H        -2.3635554161       -1.7848548575        0.9058926819
 H        -2.2694221377       -0.1658873806        1.8275792667
 H         0.8569905944        1.9933066823       -3.3504037540
 H         0.5430112335        2.8329957874       -1.8249035740
 H         6.0196436263       -0.2151547809       -2.3477317346
 H         5.4262488083        0.7696368389       -0.9636448301
 H         4.1091293967        1.4363664468       -4.8953633339
 H         2.9945776969        2.8235557575       -4.7279443385
 H         2.5048546384        1.1496216262       -4.5902909083
 H         5.4125331200        3.0325977184       -3.2620002373
 H         4.0858311222        3.9466214723       -2.4200051318
 H         4.9821716070        2.8627451678       -1.4650714227
 H         4.3111822625       -1.3566369010       -0.1504263441
 H         6.0684202362       -1.5544888858       -0.4482111759
 H         2.1588703812       -2.4745683947       -3.2486332266
 H         3.2461367744       -3.5697443514       -4.2136811847
 H         5.8784313127       -4.8023631859       -3.0431828515
 H         4.4070785750       -5.7644590695       -2.7008268537
 H         5.8327320409       -5.7483675583       -1.7561943405
 H         4.3100998381       -5.1003069443        0.3146987950
 H         5.1997455643       -3.7553019613        0.5238991546
 H         3.5931376274       -3.5030032671        0.4328239638
 H         1.1638792024       -4.7778369627       -4.7555328204
 H         0.5474832317       -4.6418079056       -3.1570324915
 H        -3.2971198026       -2.5957540810       -2.9007634180
 H        -2.1644730772       -1.3942425171       -3.6814436857
 H        -1.0139730618       -0.7413689150       -5.4059589360
 H        -2.1488412870       -1.4681698361       -6.4396916158
 H        -0.2246394593       -1.5911199129       -6.8625939763
 H        -0.4444102730       -5.0689596212       -6.0805139996
 H        -1.1594315505       -4.1551602522       -7.3425285102
 H         0.4870074773       -3.8116565638       -6.8454771667
 H        -4.6363117889       -2.5173626368       -5.2183680101
 H        -3.8433414233       -1.2261634689       -5.5562260295
 H        -4.4131985571        0.7868820972       -1.4443125131
 H        -5.9330810413        1.0144129814       -1.9607343057
 H        -7.4037858301        0.5536008496       -3.1111080415
 H        -8.2333813522       -1.0415022524       -2.6349630222
 H        -7.8545488977       -0.7495647493       -4.2629661648
 H        -7.3131744971       -3.0510781249       -2.7647024406
 H        -6.6953792149       -3.0732207078       -4.4699934921
 H        -5.6398042724       -3.4587957472       -3.2350531963
 H        -6.8187101482        0.6250627703        0.3689066050
 H        -5.2247050215        0.3496114476        0.8798305792
 H        -3.6544740160        5.0552798777        0.7158070729
 H        -4.0494570922        5.3813652419        2.4279669446
 H        -2.4647248889        4.7617618738        1.9224393107
 H        -7.6246730846        4.0409927962        1.9231138625
 H        -6.4236253800        4.5493297791        0.6774885001
 H        -6.3198817572        5.0338811628        2.3248835576
 H        -7.1674521288        1.5274858532        2.6174634839
 H        -5.5733226334        1.3643339399        3.2770441588
 H        -6.7891453504        2.6095157077        3.8607350017
 Na       -1.1898668131        1.9741893371        2.6696520064
