155

 C         2.0100192476        3.4872855658        2.5304268189
 C         0.7859078969        3.9184204565        3.2547938372
 C         0.8909582828        4.0975556811        4.7630529366
 C         0.5862026948        2.6621928581        5.3089630682
 C         1.3255646803        2.2793308035        6.6299225728
 C         2.1889305620        4.8544267799        5.3572876413
 C        -0.3145487039        5.0969860768        5.1863227298
 O        -0.2855636025        4.0983957113        2.6369765075
 O        -0.1650100585        1.9085029865        4.6752628918
 C         1.3772954831        0.7639435549        6.7566905734
 C         2.5048248283        0.2065173101        5.8850403714
 C         2.6309510368       -1.3255510044        5.7841746997
 C         1.8372116203       -1.6512505259        4.3843487516
 C         2.5413014408       -1.6569831577        3.0053693756
 O         3.2583762904        0.8629298794        5.1789978905
 O         0.6335968124       -1.9006152040        4.4537682500
 C         4.1473399138       -1.7974073086        5.7646878945
 C         1.7696256849       -1.9590062245        6.8936959498
 C         1.5935984968       -1.7898079000        1.8000857425
 C         0.6127671618       -0.6521563815        1.6026728801
 C        -0.3633193031       -0.8354703759        0.4493949712
 C        -0.3569632087        0.5211150793       -0.4234725411
 C         0.2827614686        0.5634421870       -1.8579077462
 C        -0.0374053927       -2.0863105025       -0.3993615156
 C        -1.6855244971       -1.1178625478        1.1608507938
 O         0.4797382876        0.3151457073        2.3630816288
 O        -0.8456043969        1.5269075537        0.0627879398
 C         0.9488745273        1.8968033449       -2.2931546293
 C         2.4136074109        2.0725505863       -1.7956948883
 C         3.4866132642        1.8820497534       -2.9602380560
 C         3.7933776523        0.3060084736       -2.6960109895
 C         4.9733987246       -0.0267472521       -1.6586918399
 O         2.7882376688        2.3378952382       -0.6937157565
 O         3.1046186652       -0.5288087025       -3.2017183585
 C         2.9843747851        1.9260100742       -4.3953177385
 C         4.6104870324        2.8331759349       -2.6552108687
 C         5.0845418590       -1.4106818734       -1.0453085896
 C         4.9968757705       -2.6361154356       -2.0738921237
 C         4.3985967544       -3.9933270510       -1.7090574837
 C         2.8831814217       -4.0454648130       -2.0653438899
 C         2.4681067745       -3.6561594653       -3.5016153094
 C         5.3141887062       -5.1111244411       -2.4650306553
 C         4.5013279707       -4.2095318418       -0.1457099644
 O         5.4745909302       -2.4753270178       -3.2004703205
 O         2.0781057655       -4.2275184838       -1.1655470136
 C         1.0308843004       -4.0158329321       -3.9160082394
 C         0.2578044909       -2.7748431116       -4.3858553809
 C        -0.5937250108       -2.7435186474       -5.7084055788
 C        -2.1097131576       -3.2189092373       -5.1522834124
 C        -2.9401548780       -2.2970878310       -4.2071568483
 O         0.1780292872       -1.8199900709       -3.6140048132
 O        -2.4985162046       -4.3884658620       -5.3734360081
 C        -0.6273762179       -1.3286508364       -6.2219924026
 C        -0.1406184981       -3.8328871550       -6.7003042058
 C        -4.0170008138       -1.4041089739       -4.8935964561
 C        -4.9678507450       -0.6506459153       -3.9645263888
 C        -6.0807801019       -1.2743153562       -2.9807751431
 C        -5.6169273387       -1.1876953978       -1.5083883754
 C        -5.1041973196        0.2055289321       -1.0411558911
 C        -7.4597568087       -0.4535431478       -3.0143206166
 C        -6.4545789511       -2.7265562433       -3.3642700975
 O        -4.9168196800        0.5769413748       -3.9851395221
 O        -5.5997437304       -2.0921492245       -0.7214980607
 C        -5.4300396074        0.6376061562        0.3967852837
 C        -5.7057787215        2.1981621644        0.5013108472
 C        -5.6828403287        2.9946600023        1.9551388632
 C        -4.1302350328        3.3695004359        2.1254542971
 C        -3.6594526896        4.7796462165        1.8474752699
 O        -5.9489758197        2.8041322424       -0.5049834531
 O        -3.4674346802        2.3873231668        2.2235796836
 C        -6.6972954357        4.1833034012        1.8810718584
 C        -6.2077076587        2.0399297943        3.0394174432
 H         2.3057872828        4.1824987681        1.6835855476
 H         2.8370191766        3.1509079837        3.1350532702
 H         1.8241713648        2.5543293592        1.8778056210
 H         2.3902622727        2.6327414001        6.5282213133
 H         0.6985418625        2.7600627845        7.4291219873
 H         3.0746690931        4.3320844148        4.9965045027
 H         2.0058022506        4.7885113453        6.3723125125
 H         2.2893487964        5.8381348906        4.8613397179
 H        -1.2616082964        4.4622305369        5.3399574846
 H        -0.0764021223        5.7425828499        6.0921021504
 H        -0.3081765434        5.7199227470        4.2546434239
 H         1.7841525084        0.4403071824        7.8065683873
 H         0.4376545334        0.2691341260        6.6593128795
 H         3.0179588311       -0.6377849741        2.9243433016
 H         3.3769108615       -2.4000198295        2.9886259648
 H         4.6765743267       -1.1099451624        5.2599151981
 H         4.1223366640       -2.7537021015        5.2664167750
 H         4.3880039563       -1.8019058087        6.8507842668
 H         0.7025514277       -1.7466355033        6.9483353655
 H         1.8139215782       -3.0424375995        6.7793144548
 H         2.2165755798       -1.8598435479        7.8618152501
 H         1.0922549105       -2.7792213948        1.7831998971
 H         2.2459152637       -1.7137811103        0.9316320474
 H         1.1562010070       -0.2414825863       -1.8635551771
 H        -0.5077436794        0.2530506823       -2.4819902793
 H        -0.7110230404       -2.1137533679       -1.2259044007
 H        -0.1528954848       -2.9912355799        0.1618880402
 H         1.0454826058       -2.1930459463       -0.7979201147
 H        -2.2687501703       -1.8712140754        0.6567900468
 H        -1.4892598613       -1.5572064349        2.1173419028
 H        -2.3015630212       -0.2774688530        1.2672628803
 H         0.8409073811        1.9690969489       -3.3355214528
 H         0.2941287777        2.6345685467       -1.7852877915
 H         5.9139748649        0.1309739618       -2.1661787067
 H         5.0188325494        0.6639734471       -0.7744613922
 H         3.8810889119        1.7221472657       -4.9592503579
 H         2.6333954675        2.9434078058       -4.7247771266
 H         2.2722736186        1.1476435429       -4.6873187603
 H         5.6789683981        2.3601211178       -2.5980175548
 H         4.7055039430        3.6238021128       -3.5111121195
 H         4.5009778800        3.2880298167       -1.6953168780
 H         4.4516951349       -1.5011370942       -0.1287467958
 H         6.0993500822       -1.3197526083       -0.6440407833
 H         2.6123409720       -2.5946280227       -3.5112820842
 H         3.1420382130       -4.2296178490       -4.1971957087
 H         4.9081638031       -5.3877415825       -3.4977908258
 H         5.2191036840       -5.9703825955       -1.9176293383
 H         6.2991419495       -4.9264502094       -2.5847846651
 H         3.9077116580       -4.9991695844        0.3389385954
 H         5.5143115635       -4.4950537138        0.1840313489
 H         4.1342026462       -3.4407049789        0.4583433566
 H         1.0614290106       -4.7622693811       -4.6452319065
 H         0.5151990627       -4.5052844035       -3.0680825744
 H        -3.3367026504       -2.9968704466       -3.4758625010
 H        -2.2091770149       -1.6476533774       -3.6204350297
 H        -1.2099995643       -0.6093820048       -5.5516838123
 H        -0.8875026903       -1.3395302375       -7.3004210470
 H         0.3401039874       -0.8349242058       -6.2812633608
 H        -0.1543520953       -4.8393584864       -6.2004479146
 H        -0.7149608810       -4.0663940008       -7.6033120650
 H         0.8346957911       -3.5343675453       -7.1627721860
 H        -4.6405216502       -2.0388842700       -5.5226090171
 H        -3.5482644921       -0.8048245270       -5.6198857778
 H        -4.0018567663        0.1518966241       -1.1901957940
 H        -5.3974007639        0.9570545796       -1.7292741193
 H        -7.1518466888        0.5714000746       -2.8936489179
 H        -8.0618355842       -0.8889708905       -2.1753287252
 H        -7.8161981291       -0.6689929470       -3.9939087117
 H        -7.3781720397       -2.9203012486       -2.8496062808
 H        -6.5838966518       -2.8944600687       -4.4367175302
 H        -5.6314264273       -3.3310895528       -3.0031054082
 H        -6.3548913113        0.2272717677        0.8437003005
 H        -4.6743992083        0.3860968308        1.0923488616
 H        -4.2012504559        5.4138953774        1.1383660104
 H        -3.8393762095        5.3384290949        2.8573822492
 H        -2.6113143418        4.8467909863        1.6731743888
 H        -7.6270979072        3.7299950375        1.6584687578
 H        -6.5152289722        4.9952746240        1.1621841824
 H        -6.6458623752        4.7285176627        2.8238847276
 H        -7.2134386604        1.9413866150        2.7680353077
 H        -5.7176062069        1.1178373335        3.2037744181
 H        -6.2476420813        2.5772375220        4.0455280211
 Na       -1.1135870448        1.9613457424        2.4870914682
