155

 C         2.1213601397        3.6917461853        2.4460299485
 C         0.7922651721        4.0588234613        3.2195929943
 C         0.7705201210        4.1437694608        4.7469322117
 C         0.5468986875        2.6539977127        5.3425686530
 C         1.2176340315        2.3544764194        6.6583779359
 C         2.0554859798        4.7869701484        5.2956416823
 C        -0.4903530573        4.8501978546        5.2148891172
 O        -0.1862340504        4.2477448570        2.5224113051
 O        -0.2901855899        1.9684485771        4.7819435641
 C         1.2707809144        0.9066470224        6.8882354016
 C         2.3102782337        0.2241051618        5.9198548106
 C         2.3339297698       -1.3310609672        5.8686303996
 C         1.6832344927       -1.5931609418        4.3842662238
 C         2.6490062519       -1.2443110332        3.2395204095
 O         3.1116808515        0.8867259054        5.2314801416
 O         0.5774573507       -1.9753699078        4.1845983691
 C         3.8258107211       -1.8912049768        5.8742718439
 C         1.5599497415       -2.1511781980        6.8856319643
 C         1.9798969519       -1.6483655929        1.8881098777
 C         0.8744889597       -0.6355242603        1.6484210514
 C        -0.2076668630       -0.9514464723        0.5475765444
 C        -0.3227687033        0.3488237836       -0.3424840664
 C         0.4271207518        0.4386791886       -1.6337340925
 C         0.0489017421       -2.1689096389       -0.3900636548
 C        -1.5668313499       -1.0960002207        1.2306069148
 O         0.8408111043        0.4582649499        2.1994877381
 O        -0.7588029995        1.3746230788        0.1544018550
 C         0.7439225870        1.9534926467       -1.9113364756
 C         2.2543283694        2.1765557834       -1.8015279165
 C         3.3774762832        1.9309706868       -2.9281655840
 C         3.6992433512        0.3523830351       -2.7073956798
 C         4.8694517138        0.0858297825       -1.7893388232
 O         2.6965272033        2.3419519597       -0.6481545719
 O         2.9421092855       -0.5466460768       -3.0491436684
 C         2.8271807450        2.0549570591       -4.3416548642
 C         4.6504731036        2.8128463181       -2.7222944859
 C         4.8399248418       -1.4619921223       -1.1787703389
 C         5.1205569047       -2.5706592323       -2.1628176627
 C         4.4669520369       -3.9921371300       -1.7450523984
 C         2.8583186173       -3.9715791991       -2.0822295955
 C         2.4059328797       -3.7418240348       -3.4999540795
 C         5.1118473420       -5.1145030148       -2.6197724304
 C         4.6209668334       -4.2855697686       -0.1991054932
 O         5.6842732474       -2.4656431161       -3.2268881162
 O         2.0514509868       -4.2006884993       -1.2377332988
 C         0.9264587639       -4.0961589606       -3.8180975745
 C         0.2238060326       -2.8479797914       -4.3207809929
 C        -0.5852822832       -2.7695895530       -5.6198893354
 C        -2.0603910809       -3.1579892506       -5.1620606355
 C        -2.7865221566       -2.1239774254       -4.2325232427
 O         0.2087633511       -1.8061933800       -3.6778670539
 O        -2.5605070213       -4.1844471168       -5.4627189826
 C        -0.6061507349       -1.2802088023       -6.1164485548
 C        -0.1644224187       -3.6172690241       -6.8085852158
 C        -4.0532725572       -1.7032314176       -4.9519664679
 C        -4.8729338765       -0.7436687990       -3.9821705181
 C        -5.8378726711       -1.2707557035       -2.9568652980
 C        -5.4006539825       -1.0793710162       -1.4863702152
 C        -4.8855890600        0.2413900290       -1.0824625682
 C        -7.2163732592       -0.4760702706       -3.0579844928
 C        -6.2282915590       -2.7515574128       -3.2954808027
 O        -4.7380228845        0.4512269903       -4.0519464713
 O        -5.5674267625       -1.9629994123       -0.6815494165
 C        -5.4636172818        0.6275186654        0.2908247067
 C        -5.9282167477        2.1001900434        0.4169632307
 C        -5.7180125450        2.8164399729        1.8572431663
 C        -4.1617264401        3.1103354116        1.9384230490
 C        -3.7373884371        4.5563970118        2.0012950240
 O        -6.3174892716        2.7993659705       -0.4340161711
 O        -3.3816898833        2.1228953778        2.1391113226
 C        -6.4464750228        4.0852105489        1.8462562319
 C        -6.0503467179        1.9053819185        3.0946628522
 H         2.5624672184        4.5829110872        2.0892111433
 H         2.8033505183        3.1226595611        3.0648735683
 H         2.0557003012        3.1715274598        1.5425271899
 H         2.2407556847        2.6985697174        6.6653222201
 H         0.5211354314        2.8195399529        7.3475842676
 H         2.8418715313        4.0768261075        5.0523467865
 H         1.9391003607        4.9614012639        6.4034640811
 H         2.2245910794        5.5952199040        4.6439020419
 H        -1.2822784663        4.3433991417        4.7586505487
 H        -0.4832678131        4.6852744145        6.2859051499
 H        -0.4308665747        5.9035219215        5.0539223240
 H         1.4377030042        0.7157913385        7.8892879944
 H         0.2865796292        0.4054580127        6.6872662115
 H         2.8031514585       -0.1888437688        3.2592160229
 H         3.6090819657       -1.6953054356        3.3406023207
 H         4.3084565515       -1.4985796096        4.9059765441
 H         3.7007332697       -2.9654325019        5.8823662104
 H         4.2213865357       -1.5708337235        6.8228987758
 H         0.4666854862       -2.0056414503        6.7566661991
 H         1.7199977154       -3.2459928237        6.7630438911
 H         1.8003616035       -2.0021032011        7.9948639186
 H         1.6606097236       -2.6882783290        1.8928100958
 H         2.7676231113       -1.4972905499        1.1206098729
 H         1.2882623771       -0.0759082440       -1.4111404722
 H        -0.0376612084       -0.0364769253       -2.5425911164
 H        -0.7644989388       -2.3151409498       -1.1661425773
 H         0.0873433807       -3.0999604242        0.2062160842
 H         1.0154168038       -2.1937261542       -0.8377203396
 H        -2.4210952431       -1.1336187834        0.5114409555
 H        -1.6295330558       -2.0903404650        1.7780900675
 H        -1.7988065557       -0.2764852732        2.0108670966
 H         0.3675063423        2.1488766395       -2.9504132155
 H         0.1113878738        2.4747435365       -1.2033775507
 H         5.8001773974        0.2468694247       -2.3916136415
 H         4.9356822040        0.8238835400       -0.9873805296
 H         3.5571150052        1.6362931113       -5.0501137066
 H         2.6964791190        3.0650391006       -4.6460643305
 H         1.8979929392        1.5302922516       -4.4327552137
 H         5.4483941414        2.2783674120       -3.1071571367
 H         4.5866709208        3.6732899302       -3.2932814260
 H         4.9943968451        3.0684168303       -1.6929594908
 H         3.9180066644       -1.6332469667       -0.6259865472
 H         5.6131350477       -1.6023168960       -0.3862576244
 H         2.5462723398       -2.6356095183       -3.6423249471
 H         3.0279113281       -4.3421619263       -4.1145074223
 H         4.8234034901       -4.9275330214       -3.6067396522
 H         4.9069850322       -6.2403084863       -2.4413511704
 H         6.2943237704       -5.0329106733       -2.4997224030
 H         4.4707760694       -5.2673195132        0.1162432562
 H         5.5946558797       -4.0743865369        0.2034536897
 H         3.7895812690       -3.8587382855        0.3787468804
 H         0.9342923164       -4.9609245220       -4.5712528945
 H         0.4772554347       -4.5054868068       -2.9178609907
 H        -3.0335930261       -2.6161940185       -3.2506697525
 H        -2.1166232982       -1.3212727969       -3.9586213305
 H        -0.9186650944       -0.5872612153       -5.4210974720
 H        -0.9728437717       -1.2214072639       -7.1627568161
 H         0.4434062801       -0.8939977825       -6.3184871127
 H        -0.3255345829       -4.6509933555       -6.8026503634
 H        -0.7144094727       -3.2843503941       -7.6621620728
 H         0.8017160463       -3.3731659732       -7.1148124677
 H        -4.5195028900       -2.6725656201       -5.2580942812
 H        -3.8044278023       -1.0816421010       -5.9163055669
 H        -3.8143439718        0.1437049595       -0.9601039820
 H        -5.0660693620        0.9386270167       -1.9385487088
 H        -6.9749535420        0.5222564614       -2.7814931431
 H        -7.7393575371       -0.9838223454       -2.3099848490
 H        -7.5398908689       -0.5042524864       -4.1045415680
 H        -6.9619742377       -3.1924270595       -2.6114697453
 H        -6.6830891975       -2.6890119130       -4.2869629901
 H        -5.2891344600       -3.3246947226       -3.2461308488
 H        -6.2277651642        0.0300908627        0.6796548894
 H        -4.6487385771        0.5333910771        1.0554432938
 H        -3.7716212934        4.9487053444        0.9674840435
 H        -4.2991959096        5.2860118896        2.5282399679
 H        -2.6709222447        4.6331908635        2.3142137910
 H        -7.4965694763        3.8338002742        1.6948357890
 H        -6.2427652550        4.6932653443        0.9851071854
 H        -6.2161834488        4.7580921682        2.5981222271
 H        -6.9791199778        1.2825848596        2.9115527048
 H        -5.2102248575        1.2048369832        3.2487865708
 H        -6.0901113640        2.4389378254        3.9851294299
 Na       -1.0710435813        2.1192714058        2.3277400838
