155

 C         2.4884626378        4.8254314497        4.6446218878
 C         1.0948868922        4.4290637958        4.3492748431
 C        -0.0827753624        4.5813901892        5.2641118774
 C        -0.4230008009        3.2111540207        5.7918171140
 C         0.1599707156        2.7774062308        7.1772236567
 C         0.2142891561        5.6378710990        6.3470353777
 C        -1.3551267830        5.1350705619        4.4605493922
 O         0.9093991430        3.6174224109        3.4368250035
 O        -1.0238915958        2.4489824954        5.0506526312
 C         0.0902627931        1.2595559347        7.5410907872
 C         1.2284007085        0.4447378781        6.8628093737
 C         1.1590315112       -1.1088880473        6.8572070241
 C         0.7265343571       -1.6134279063        5.3718228638
 C         1.7562406148       -1.7427393160        4.2223818785
 O         2.2067410117        1.0548723297        6.4147328237
 O        -0.3794935485       -2.0387605144        5.1897452450
 C         2.5814091508       -1.7387121598        7.2871955211
 C         0.1050050564       -1.6799437291        7.7855468754
 C         1.1638978913       -1.8353856343        2.7644981981
 C         0.6975885381       -0.5842917971        2.1265490169
 C         0.1809945429       -0.6310358952        0.5952444922
 C         0.3998591677        0.6228071138       -0.2703322899
 C         0.5045389195        0.4145729367       -1.7717961041
 C         0.6884290308       -1.9649650713       -0.1490125669
 C        -1.3600032329       -0.6864264348        0.5467338451
 O         0.3457853061        0.3216830800        2.8616914536
 O         0.3566915847        1.7759655088        0.1038235271
 C         0.8018665019        1.7198345117       -2.5042835083
 C         2.1635834553        2.2958262868       -2.2693864938
 C         3.4091869562        2.0859622027       -3.2632649995
 C         3.7805415605        0.5763607988       -3.0713091221
 C         4.8751259883        0.1145029368       -2.1021360270
 O         2.4395348332        2.8968190510       -1.2475513714
 O         2.9494294621       -0.2376798085       -3.4690901091
 C         2.9189217256        2.3231576828       -4.7616999105
 C         4.5664102186        3.1164432726       -2.8337962883
 C         4.9711082806       -1.4459359841       -1.9160730507
 C         5.4405256824       -2.1313120418       -3.2194815498
 C         5.4040042594       -3.7559394469       -3.1444974876
 C         3.8889665888       -4.2246722010       -2.8013049406
 C         2.9454157125       -3.8117114016       -3.9269349730
 C         6.1224834984       -4.3265506121       -4.3337675364
 C         6.2391468537       -4.1565439313       -1.8962601780
 O         5.9889988611       -1.4718931911       -4.0563064719
 O         3.6382542688       -4.7378494931       -1.7263718694
 C         1.5291225137       -4.3181116145       -3.8016567644
 C         0.5182078681       -3.2017082970       -3.9873256666
 C         0.1326445315       -2.7318631257       -5.4374311828
 C        -1.4169208480       -2.7677340372       -5.7174345038
 C        -2.3969993912       -1.7720947708       -5.0412409182
 O        -0.0264317272       -2.5587434722       -3.1034148625
 O        -1.9000781731       -3.4907013751       -6.5151541448
 C         0.6871060043       -1.3716068614       -5.6129396745
 C         0.7627543672       -3.6823579378       -6.6395078446
 C        -3.8088860402       -2.2484041446       -5.3174906220
 C        -4.9145994062       -1.2710857107       -4.7192614372
 C        -5.8267653048       -1.6270826764       -3.4048231001
 C        -5.5451696527       -0.4714241186       -2.3167506263
 C        -6.5705996867       -0.3291256563       -1.0885063271
 C        -7.3671337933       -1.4303161166       -3.8359771108
 C        -5.5746323954       -2.9936877913       -2.7854519961
 O        -5.1243445900       -0.1753856663       -5.2177542796
 O        -4.5951931320        0.2450394951       -2.3344235567
 C        -5.7363385464        0.0463244980        0.1032596826
 C        -6.2590178903        1.1828646385        0.9586386978
 C        -5.3903875344        1.6393439446        2.2152444465
 C        -4.0740958071        2.1447040763        1.6855444634
 C        -4.1262622485        3.3522864229        0.8219368309
 O        -7.1542448650        1.9549736332        0.6650621782
 O        -2.9754933875        1.6302766397        2.0369568292
 C        -6.2834713972        2.5896227648        3.0998467111
 C        -5.0561096034        0.4283365076        3.1527967330
 H         3.1528147776        4.1955384057        4.0175440026
 H         2.7373465505        5.8431650011        4.4418038905
 H         2.8672271495        4.5606657067        5.6876776882
 H         1.1949153708        3.1093861245        7.3284758776
 H        -0.2772274827        3.4748742497        7.9722211605
 H         1.0535820471        5.3027535774        6.9380926403
 H        -0.5900779071        5.9049648829        7.0844613806
 H         0.4177094092        6.6387994535        6.0004045453
 H        -1.8643505856        4.4124206241        3.8645123471
 H        -1.9748500612        5.5165043900        5.1923808842
 H        -1.2311171198        5.9298855912        3.7173146980
 H         0.0584663098        1.1306769385        8.5702661072
 H        -0.8466657794        0.8576158640        7.0343170352
 H         2.5130459207       -0.9255880334        4.3195470204
 H         2.3506625932       -2.6812934227        4.3659799797
 H         3.0655994532       -1.6669618552        6.3844777135
 H         2.4539235948       -2.7250631650        7.6705997384
 H         3.2006425279       -1.1442377825        8.0122675833
 H        -0.9159807525       -1.5056591076        7.4670114552
 H         0.1138079681       -2.7579924663        7.7937358191
 H         0.0143531044       -1.3088004565        8.8308146543
 H         0.3039363227       -2.4743917466        2.7753880292
 H         1.9265267140       -2.3822529652        2.1924969825
 H         1.2519906360       -0.2715385903       -1.9612159078
 H        -0.5356312623       -0.0466884611       -1.9342606030
 H         0.5205912507       -2.0703553465       -1.1831604143
 H         0.1558962616       -2.7109869692        0.4563037194
 H         1.7912557556       -2.0049871100        0.0737226669
 H        -1.7216266865       -0.7214737998       -0.4753671669
 H        -1.8233487174       -1.4958866500        1.1448241932
 H        -1.9312607854        0.1012367331        0.9952208013
 H         0.6382583457        1.5372462049       -3.5789589134
 H        -0.0032686870        2.3354020026       -2.1967264541
 H         5.8250130000        0.6419846164       -2.2882378034
 H         4.5756900362        0.4691899845       -1.1252926257
 H         3.7573396287        2.1692347406       -5.4444427270
 H         2.4486805570        3.2848670523       -4.8622554370
 H         2.2100876134        1.5737594636       -4.9806264391
 H         5.5638523112        2.7877504312       -3.1376162663
 H         4.3653367284        4.0932107089       -3.3157526852
 H         4.4892866458        3.1379844714       -1.8031772954
 H         3.9240132816       -1.6846367560       -1.7662713851
 H         5.5476160800       -1.8993365904       -1.1165373881
 H         3.0429264002       -2.7391917957       -3.9014328389
 H         3.3618217387       -4.0574031017       -4.9399971287
 H         6.6317414829       -3.6084214206       -4.9186743073
 H         5.4813470011       -4.7709573048       -5.0700850997
 H         6.7827468897       -5.1112038990       -3.9699433584
 H         6.3822921758       -5.2025392701       -1.9509400459
 H         7.2676896297       -3.7154020515       -2.0259932072
 H         5.7414025534       -3.7539929470       -0.9980298180
 H         1.3527048605       -5.0739717342       -4.5460902726
 H         1.4675756487       -4.7378341783       -2.8079817841
 H        -2.1705857579       -1.6314329613       -3.9863055351
 H        -2.1844133385       -0.7996778586       -5.3406215480
 H         0.5694275330       -0.7438526322       -4.6264613288
 H         0.3260748149       -0.8894099773       -6.5094319383
 H         1.7521754263       -1.3751627496       -5.7599999883
 H         0.3680958836       -4.6685237103       -6.5509267360
 H         0.4221536500       -3.2376115069       -7.5346065656
 H         1.7899614001       -3.7453109333       -6.4869274764
 H        -3.9267856563       -3.2189196327       -4.9101849561
 H        -4.0290568556       -2.1735518243       -6.4019140453
 H        -7.2424887952        0.5021617871       -1.4861748744
 H        -7.1891337653       -1.2428961668       -0.9362809540
 H        -7.4220599177       -0.3812442706       -3.9818843703
 H        -8.1420154017       -1.8435132570       -3.1833255885
 H        -7.5185593671       -1.9048865994       -4.8348061299
 H        -5.8819109965       -3.2561288714       -1.7764675128
 H        -6.2224702577       -3.6894165468       -3.3456092949
 H        -4.5105223798       -3.3317470470       -2.7769367061
 H        -5.5889390065       -0.8398689256        0.6819069946
 H        -4.7197442402        0.3420800078       -0.2709718924
 H        -4.4912388703        3.1735905296       -0.1845707120
 H        -4.7648842950        4.1193744235        1.3347934659
 H        -3.1878722379        3.8219150233        0.7864854162
 H        -6.6420560915        2.0035933165        4.0054611884
 H        -7.1234726983        3.2084939042        2.6338937185
 H        -5.6597244736        3.3477275813        3.6560677720
 H        -5.9597896351       -0.2117904859        3.2844804589
 H        -4.3413574742       -0.2270691928        2.6409013686
 H        -4.7395521765        0.6696646111        4.1731878364
 Na       -0.8072391936        2.3165348565        2.4727525984
