155

 C         2.3553595693        4.8332653800        4.6340365108
 C         0.9250141047        4.3776300136        4.2381857360
 C        -0.1780176491        4.5407821285        5.2306685127
 C        -0.5663809465        3.0945054215        5.8213010595
 C        -0.1880549339        2.6531039176        7.2277055462
 C         0.1608852126        5.4577740046        6.3869591215
 C        -1.3423894503        5.2146232969        4.5162048559
 O         0.8514000249        3.8764482519        3.1437794222
 O        -1.1022460191        2.3688663939        5.0323831685
 C        -0.2328825644        1.1116181048        7.2602449057
 C         1.0631198286        0.4383865157        6.8333703839
 C         1.1586140742       -1.1077069837        6.9078131436
 C         0.6380383074       -1.5985506143        5.5195882747
 C         1.5448230554       -1.7075395885        4.3138498724
 O         2.0620249174        1.0642185944        6.5402467489
 O        -0.5630918345       -1.6568187530        5.3207607299
 C         2.5851293971       -1.5095516685        7.2042883630
 C         0.2362595692       -1.6016173307        8.0371723196
 C         0.8366312813       -2.0630658649        2.9559771633
 C         0.4260627949       -0.7242238954        2.1450983662
 C         0.0548156070       -0.7832762857        0.6134263846
 C         0.3131760479        0.6112518186       -0.1511502389
 C         0.6885985498        0.5862829167       -1.6544142303
 C         0.7276961472       -2.0692390727       -0.0646079191
 C        -1.4627725276       -0.8292430350        0.5769554348
 O         0.3974536556        0.2550977698        2.8497884874
 O         0.1224451039        1.6626476115        0.3957402398
 C         0.9345887642        1.8307817361       -2.5643234359
 C         2.3325203072        2.4890759573       -2.2775413860
 C         3.4644365418        2.1609001685       -3.2565707722
 C         3.7045326120        0.5908544233       -3.0267162993
 C         4.9807610647        0.2006005662       -2.2358152943
 O         2.5296047822        3.0383965917       -1.2384966332
 O         2.9137319026       -0.1869844656       -3.5045324867
 C         3.1503418216        2.4461308879       -4.7623503547
 C         4.7512582695        2.9588356987       -2.9720307342
 C         5.0302272147       -1.2751682970       -2.0902091308
 C         5.5215697374       -2.0896571222       -3.3183145848
 C         5.5058502901       -3.6042202535       -3.1119633826
 C         4.0331491575       -4.0653447147       -2.9979585633
 C         2.9980481884       -3.7979467542       -4.2680230912
 C         6.0131828980       -4.3320116891       -4.3125921868
 C         6.4310081046       -3.9234900561       -1.8495100423
 O         5.8827227059       -1.5424544223       -4.3165119572
 O         3.6640063652       -4.5912574466       -1.9913313287
 C         1.5951575388       -4.3321959619       -3.8196654780
 C         0.4619293051       -3.2499403532       -4.0079724735
 C         0.0870732323       -2.6700780443       -5.4380379516
 C        -1.4564166880       -2.6977734972       -5.6698562017
 C        -2.4068509061       -1.6463709166       -5.0800787917
 O        -0.0490194196       -2.8732228400       -2.9829455393
 O        -2.0271380237       -3.6064091647       -6.2926728676
 C         0.7486952064       -1.2816943907       -5.5907954109
 C         0.6863992256       -3.6090351863       -6.5121815002
 C        -3.8121419316       -2.2701382417       -5.2018115891
 C        -4.8712603329       -1.2655538743       -4.7114658264
 C        -5.7761325761       -1.5522941123       -3.4801574070
 C        -5.4086127519       -0.5315531646       -2.3543147442
 C        -6.2801526251       -0.4553104984       -1.0829881695
 C        -7.2762234086       -1.4805002696       -3.9646102386
 C        -5.5310275299       -3.0599872503       -2.9285968239
 O        -5.0419912226       -0.1730215272       -5.1923523808
 O        -4.5010693765        0.2599047270       -2.5369891212
 C        -5.4669835948       -0.0507481983        0.1578298340
 C        -6.1152433804        1.1041298714        0.9250567857
 C        -5.3527385892        1.5188287778        2.2658810938
 C        -4.0239425366        2.1335043439        1.8123274964
 C        -4.1242658188        3.2957465969        0.8408660987
 O        -7.0372730627        1.7900017383        0.5094565028
 O        -2.9683318116        1.8274127743        2.2805387243
 C        -6.1234932901        2.5419595610        3.1438601598
 C        -5.0353247403        0.2245368716        3.0743642266
 H         3.0417351837        5.1942636883        3.8436660398
 H         2.4635201903        5.6001289533        5.4636546722
 H         2.8623318204        3.9337349026        4.9350654888
 H         0.8263378882        3.0412644630        7.4659339063
 H        -0.6828167273        3.2198260303        7.9705371151
 H         1.0348895431        5.2648583474        7.0081849477
 H        -0.6158698240        5.6326093150        7.0785504450
 H         0.2947930437        6.4703298066        5.9866242643
 H        -1.9012112719        4.6147451859        3.7158125223
 H        -2.0746550809        5.8689798883        5.1690760467
 H        -0.8757306299        5.8768725730        3.7777893262
 H        -0.2595040776        0.8259159991        8.3737978292
 H        -1.0690637596        0.7837901116        6.7263268916
 H         2.1656103660       -0.8254749283        4.2366356322
 H         2.2378946769       -2.4956737352        4.5662356128
 H         3.3877853137       -0.9592732964        6.6227585610
 H         2.5592708048       -2.6384452212        7.1497192718
 H         2.7821724325       -1.2381853460        8.2453154528
 H        -0.8204147676       -1.4182797204        7.8891693538
 H         0.2566979260       -2.6674588582        8.1232109170
 H         0.4281213046       -1.1772784650        8.9752670756
 H        -0.0950273885       -2.6738872371        3.1989016903
 H         1.5218171219       -2.7294162015        2.4197971705
 H         1.7241753882        0.0639298751       -1.6099651951
 H        -0.0276985890       -0.1171323100       -1.9721826013
 H         0.2235999607       -2.0067456165       -1.0974154682
 H         0.4336149133       -2.9453050958        0.4383503804
 H         1.7995354631       -1.9312002545       -0.1941954200
 H        -1.9651693190       -0.6597071883       -0.3373530884
 H        -1.9228860717       -1.6304451345        1.0545106296
 H        -1.8768188920       -0.0226150360        1.1800223590
 H         1.0324799823        1.3244214948       -3.5162764308
 H         0.0237394810        2.4799493847       -2.6479283900
 H         5.9471204307        0.4059651849       -2.6762902555
 H         4.9995857015        0.7303477394       -1.2392080208
 H         3.9734043795        2.9138448901       -5.2472847471
 H         2.2350292545        3.0064480952       -4.8080657562
 H         2.9853626643        1.4891486050       -5.3073937975
 H         5.4762906084        2.8083051533       -3.8084254698
 H         4.5200063577        4.0274582201       -3.0643304755
 H         5.1588567001        2.5956696326       -1.9665037254
 H         4.0141724563       -1.6578052280       -1.8460561717
 H         5.7236187430       -1.6198672282       -1.3042844046
 H         2.9131627445       -2.7294166193       -4.5935609662
 H         3.3544795812       -4.3647159499       -5.1155331980
 H         6.1009676361       -3.5504423383       -5.2413738533
 H         5.2938501223       -5.1048137332       -4.6819856879
 H         6.9505667938       -4.8555375926       -4.2436895987
 H         6.6931080069       -4.9843383979       -2.0312272489
 H         7.2848339015       -3.2767760289       -1.7839414902
 H         5.8750268377       -3.6904486319       -0.9347580282
 H         1.3403218029       -5.2344082678       -4.3816732340
 H         1.6524165983       -4.5454732852       -2.7314457513
 H        -2.0274395223       -1.3421865931       -4.0850497124
 H        -2.2813779307       -0.6440568194       -5.6636804751
 H         0.1218440278       -0.6064941006       -4.9958317110
 H         0.8342658183       -0.7886754754       -6.6406652918
 H         1.7675822785       -1.1923720867       -5.1423119413
 H         0.4192325023       -4.6474661684       -6.2938636673
 H         0.2307845516       -3.2604954790       -7.4665967494
 H         1.7705900259       -3.5904484152       -6.3232172095
 H        -3.8000499080       -3.1020536262       -4.4210247828
 H        -4.0298770341       -2.5666025151       -6.2251379574
 H        -6.9788174100        0.3023274495       -1.3052968486
 H        -6.7704351578       -1.3934538303       -1.0955888283
 H        -7.5129978744       -0.4836398235       -4.4478488650
 H        -7.9171036490       -1.6743893306       -3.0866017113
 H        -7.4919085040       -2.3247623727       -4.5946201440
 H        -6.2789917563       -3.4216642302       -2.1958502059
 H        -5.5505621804       -3.9084393861       -3.5956218851
 H        -4.6306177145       -3.0850643507       -2.3401616872
 H        -5.2544697561       -0.8762464738        0.8843408382
 H        -4.5429502364        0.3054936456       -0.2691282582
 H        -4.7398058528        3.0040942227       -0.0606076628
 H        -4.6426644649        4.1366715376        1.2506635668
 H        -3.1096318816        3.7002521712        0.5744542262
 H        -6.9459448598        2.1604923040        3.6709494091
 H        -6.4604284763        3.2526567254        2.4349352145
 H        -5.6115921670        3.0615769649        3.9206254214
 H        -5.8783060514       -0.1233870494        3.6665916633
 H        -4.5455133563       -0.6372955474        2.5991966823
 H        -4.4144840015        0.6157772175        3.8553482693
 Na       -0.7360467451        2.1961932474        2.6527295914
