155

 C         2.1814641392        4.7938414139        4.5775057683
 C         0.7810048142        4.4688230641        4.2396529434
 C        -0.2652885761        4.4986792681        5.3679072246
 C        -0.6054296573        2.9599925435        5.6658000546
 C        -1.1072417719        2.5655592379        7.0066235447
 C         0.0116122003        5.2491565524        6.6457810262
 C        -1.5880903679        5.0292342894        4.7107812632
 O         0.4836927104        4.1345883585        3.1144484413
 O        -0.6018030681        2.1750156290        4.7516068543
 C        -0.8999713799        1.0975429236        7.2642933191
 C         0.5781136321        0.7255707060        7.0207984928
 C         0.9900767370       -0.8080490499        6.8510363982
 C         0.2745492170       -1.4137004312        5.5902197362
 C         1.0443495010       -2.1481616940        4.5120400178
 O         1.3544602445        1.6009690410        6.8997281175
 O        -0.9521973568       -1.3920656884        5.5592725628
 C         2.5388803150       -0.8956230123        6.9259585353
 C         0.4310726299       -1.6015223220        8.0303345133
 C         0.3468213100       -2.1712783184        3.1136814325
 C         0.3503332213       -0.9152431986        2.2820722155
 C        -0.1757709256       -0.9281855260        0.8265364543
 C         0.1882319994        0.4059632107        0.0070870112
 C         1.5532371036        0.6449665060       -0.7163815261
 C         0.4746090342       -2.0816186948        0.0098124968
 C        -1.6869750167       -1.1182127349        0.8378047218
 O         0.5315346610        0.1236213431        2.8770777318
 O        -0.5916895136        1.2888462786        0.1618757154
 C         1.4388575609        1.8851675530       -1.5468333783
 C         2.7752780575        2.6200700335       -1.8014152097
 C         3.4839786193        2.3064038897       -3.1429063950
 C         3.9236036293        0.7703786058       -3.0586436868
 C         5.3338947890        0.4883406478       -2.5497833468
 O         3.1734488408        3.3600728869       -0.9442631240
 O         3.1578483101       -0.1225321539       -3.4821467783
 C         2.5735234455        2.4139913700       -4.4392513419
 C         4.6496184772        3.3050614870       -3.3469472808
 C         5.6511892831       -1.0487246082       -2.3543093138
 C         5.6863622394       -1.9399574161       -3.6320954463
 C         5.6375144474       -3.5525198776       -3.4474839629
 C         4.0641973761       -3.7992909084       -3.0033785375
 C         3.0158596941       -3.4072169242       -4.1688816570
 C         6.0195687352       -4.3102796577       -4.6614227347
 C         6.5795433380       -3.9130779884       -2.3203694182
 O         5.7003162182       -1.5752897642       -4.7930748644
 O         3.7709309971       -4.3756670616       -1.9856136453
 C         1.6955038080       -4.2207782564       -4.1643337480
 C         0.5715445451       -3.2859898485       -4.2358342322
 C         0.1722784623       -2.5835219912       -5.6098719830
 C        -1.2982663983       -3.0180038112       -5.7829078712
 C        -2.3589491125       -1.9800203831       -5.3826875500
 O         0.2325442144       -2.7929097350       -3.1676100940
 O        -1.6481392931       -4.1908341993       -6.1126698064
 C         0.2409498770       -1.0651143290       -5.5047593345
 C         0.9171906071       -3.2754359065       -6.7830231953
 C        -3.8396513581       -2.5415512227       -5.3924623998
 C        -4.7815307242       -1.3564133993       -4.9199251046
 C        -5.6115478734       -1.5890573031       -3.5962096379
 C        -4.9040605775       -0.8923051491       -2.3320049492
 C        -5.8262848573       -0.7185788067       -1.0570516401
 C        -6.9665526021       -0.8089619004       -3.8350133309
 C        -5.9226930055       -3.1416382492       -3.3003098928
 O        -4.7864436202       -0.3058810419       -5.5159279587
 O        -3.8264427068       -0.3274087209       -2.4352960798
 C        -5.1955352929       -0.2277240841        0.2278793210
 C        -5.9941415578        0.9113956573        1.0082489678
 C        -5.3461379584        1.3785051050        2.3690150061
 C        -4.0205934032        2.0825433872        2.0201845012
 C        -3.9816699644        3.2542587584        1.0517529938
 O        -6.9451486104        1.4625946562        0.6022177196
 O        -2.9630412971        1.6783126741        2.6547886894
 C        -6.1479974105        2.5385723841        3.0606318169
 C        -5.2123413821        0.1513782412        3.3209908776
 H         2.3796193005        5.7968425189        4.8127449498
 H         2.3705130932        4.4039635770        5.6014120034
 H         2.9502267225        4.4648266483        3.9193054392
 H        -0.6072985438        3.0900693824        7.8018118421
 H        -2.1409908006        2.8731890373        7.1987072840
 H         0.6954728070        4.7609838158        7.3450404789
 H        -0.8880998846        5.4416935389        7.2215248667
 H         0.5244469909        6.2046581223        6.5166457986
 H        -1.9881676362        4.2705392880        4.0316637653
 H        -2.4874863058        5.1941056706        5.3376292824
 H        -1.4449402472        5.9165101980        4.0760735041
 H        -1.1432623994        1.0829464687        8.3013236465
 H        -1.6665752507        0.4905776979        6.6536272237
 H         1.9981492394       -1.6674761605        4.4675512520
 H         1.2083371723       -3.1849360367        4.7892246000
 H         2.9457475922       -0.3428176712        6.0066600894
 H         2.9209694080       -1.9448833743        6.7226430740
 H         2.9158466339       -0.4681065948        7.7894229925
 H        -0.6584509298       -1.4830100659        8.0055314187
 H         0.6421501484       -2.6659200212        8.0266219950
 H         0.8341254708       -1.3439179328        8.9952145794
 H        -0.7054492450       -2.1527316205        3.3999389398
 H         0.5832118210       -3.1084456834        2.5874473982
 H         2.3447744062        0.6896573696       -0.0251703549
 H         1.6765463359       -0.2476720501       -1.3459755595
 H        -0.0123900518       -2.0330634002       -0.9308214582
 H         0.1991591041       -3.0580870739        0.4856501622
 H         1.4773449872       -1.9599704028        0.0599057654
 H        -2.2450615318       -1.0374857444       -0.1033990156
 H        -2.0354614931       -2.0805345413        1.1230895591
 H        -2.2110050489       -0.3638936697        1.3901256879
 H         0.9277717830        1.5792623697       -2.4985984184
 H         0.8501700919        2.6874786235       -1.0536922342
 H         6.0032493752        0.8032366926       -3.3986332207
 H         5.6896585156        0.9909430205       -1.6493280421
 H         3.0738687462        2.1554259950       -5.3737039020
 H         2.3135953230        3.5020373113       -4.5685440646
 H         1.6916146248        1.8231735737       -4.3376484818
 H         4.8929356498        3.3212814283       -4.3787788511
 H         4.3723027890        4.2657106320       -2.9889323241
 H         5.5299548998        3.0669670773       -2.6675794740
 H         5.0629129640       -1.5281813377       -1.5630371522
 H         6.6991870509       -1.0117090331       -2.0148942495
 H         2.7929457742       -2.3713358794       -3.9954310862
 H         3.4840252822       -3.5749227414       -5.1580695991
 H         6.1687781736       -5.3690270964       -4.4182417821
 H         6.9749256904       -4.1321231392       -5.0774726174
 H         5.2330203799       -4.4488014147       -5.4162506417
 H         6.4768089356       -4.9951327601       -2.1137744352
 H         7.5646400381       -3.5518179120       -2.6666408838
 H         6.3386452145       -3.4686329006       -1.3900072051
 H         1.7944661561       -5.0125688322       -4.9690188508
 H         1.6056861743       -4.7768095491       -3.2184892296
 H        -2.1044864736       -1.6935706393       -4.3039571042
 H        -2.3513674002       -1.1862336817       -6.0802180043
 H        -0.4458731028       -0.5795998135       -4.9166018237
 H        -0.0145856440       -0.6654039082       -6.4605427253
 H         1.2903924591       -0.8523084476       -5.2392920951
 H         0.5575902848       -4.3403759447       -6.7949378141
 H         0.7644283602       -2.7182088698       -7.7053287291
 H         2.0061132534       -3.1099968667       -6.5859004670
 H        -3.9157716499       -3.4354081932       -4.8494216519
 H        -4.0885556431       -2.8945239589       -6.3887312257
 H        -6.4384059948        0.0993865987       -1.4072417865
 H        -6.5460787015       -1.5624646749       -0.9237779701
 H        -6.8289628355        0.2744034586       -3.8167165055
 H        -7.7207485709       -1.0267080337       -3.0633932188
 H        -7.3777817308       -1.0887352709       -4.8085221184
 H        -6.6277175136       -3.2812531952       -2.5444503805
 H        -6.2071840900       -3.6767134311       -4.1987275696
 H        -5.0812596980       -3.7708456662       -3.0861010775
 H        -5.0214286419       -1.1108614960        0.8016798119
 H        -4.1856758808        0.2889956040        0.0753381220
 H        -4.3471958590        2.9470083453        0.1128577154
 H        -4.6598355384        4.1110182218        1.3337160615
 H        -2.8915634524        3.5651438803        0.9806059267
 H        -6.8260265512        2.1558533502        3.7509131830
 H        -6.7029230554        3.1004369585        2.3871557400
 H        -5.4046646799        3.1335684791        3.6087123320
 H        -6.1869869622       -0.1196865905        3.5971808255
 H        -4.7174031780       -0.7054621291        2.9463399965
 H        -4.6120304398        0.4378074341        4.2472553087
 Na       -0.7929884260        2.3066037692        2.2299708266
