155

 C         0.9797213515        4.7825924624        4.6057668983
 C        -0.2914028046        4.1574072470        4.1834162399
 C        -1.4957957650        4.3603339598        5.2265146549
 C        -1.7482607874        2.8724140842        5.7372703813
 C        -1.5698628922        2.3917539977        7.2928224590
 C        -1.1640334341        5.3304930519        6.3555740188
 C        -2.8174805707        4.7672992744        4.4873477125
 O        -0.4886463301        3.6398127190        3.1101845092
 O        -2.0308069380        2.0056804768        4.9305780816
 C        -1.5063116811        0.8219919330        7.4755465395
 C        -0.0775368516        0.3619659826        7.1651716139
 C         0.3344115388       -1.2121067636        7.2582749412
 C         0.9352706240       -1.6288360566        5.8198088499
 C         2.0692488946       -0.8988325192        5.1084509757
 O         0.7466008522        1.1386938501        6.8056511811
 O         0.6492401267       -2.7551803409        5.4583106035
 C         1.2918992129       -1.2898060037        8.4542696100
 C        -0.8215167725       -2.1097245159        7.6093190592
 C         2.0802791384       -1.1881307391        3.6258733788
 C         0.8388097853       -0.5881712941        2.8214945966
 C         0.7168163035       -0.7619705930        1.2632783534
 C         0.9127472780        0.6977331675        0.5712542062
 C         2.2448661500        0.9129654365       -0.1963722417
 C         1.7275344778       -1.7985032265        0.7205287134
 C        -0.6810800622       -1.1729046788        1.0437745966
 O         0.0523032060        0.1017597270        3.4593339271
 O        -0.0404119896        1.4487943223        0.5939203455
 C         2.5537094922        2.3910239434       -0.6029763828
 C         3.7999413334        2.6236717060       -1.5014294509
 C         3.9021291822        2.3628769910       -3.0153554094
 C         4.6992867040        1.0772426194       -2.8798061475
 C         6.2571845961        0.9724343415       -2.9130208218
 O         4.7087925216        3.0448690700       -0.8780261385
 O         4.0600830895        0.0633067042       -2.5174148661
 C         2.4488574241        2.2402777435       -3.6046068559
 C         4.7412767327        3.5030105714       -3.4914736081
 C         6.7483997752       -0.5415226118       -3.0430762808
 C         6.6432304197       -1.0276299669       -4.5569063618
 C         6.4832979907       -2.5882994630       -4.7394627938
 C         5.2831726821       -2.9971060489       -3.7966535756
 C         3.9068834951       -2.2383378124       -4.2353362880
 C         5.9894896911       -2.9210294477       -6.2011687090
 C         7.7709213470       -3.2827398862       -4.2991596712
 O         6.7685416036       -0.2367517263       -5.4506514159
 O         5.2514696071       -3.7957368023       -2.9338945057
 C         2.7488424627       -2.9328852006       -3.4990215798
 C         1.3546919821       -2.2266977106       -3.5524741532
 C         0.2964704865       -2.5156823406       -4.6068224308
 C        -1.1007633184       -2.8968570703       -3.9918314666
 C        -2.1686575315       -1.8774526856       -3.8249953473
 O         0.9782067367       -1.4709847527       -2.6317086812
 O        -1.2137766735       -4.0458916049       -3.7750587103
 C         0.2509716607       -1.2168579489       -5.4791074266
 C         0.7807930317       -3.5970136503       -5.5265301249
 C        -3.4652206715       -2.3608305321       -4.4231242182
 C        -4.6533995355       -1.5782765307       -4.0964125865
 C        -6.2699020092       -2.1216822566       -4.2071058566
 C        -6.7961351727       -1.9355655392       -2.8389747324
 C        -7.2940551137       -0.5266173146       -2.4776665035
 C        -6.9762515158       -1.2621923817       -5.2869773221
 C        -6.3943909523       -3.6185631815       -4.4767521787
 O        -4.4582342820       -0.4305876071       -3.8022487379
 O        -6.6669158804       -2.7515400254       -1.9108924367
 C        -7.4128612919       -0.2882438373       -0.9311349435
 C        -6.2743150916        0.6252501919       -0.4293226579
 C        -6.1478816541        0.7955217008        1.1234734536
 C        -4.7683982352        1.4689301297        1.4881252553
 C        -4.5113598854        2.8510511363        1.0277030006
 O        -5.5111260984        1.1835191773       -1.1738692627
 O        -3.9158926303        0.8907939454        2.0518805841
 C        -7.3633577600        1.4041053634        1.7924824552
 C        -6.0423095849       -0.6658742152        1.5926649346
 H         0.7009194506        5.8541651773        4.7383635298
 H         1.3561454453        4.4340964452        5.5790660275
 H         1.7660251235        4.7331515428        3.8663505132
 H        -0.6783339942        2.9192253392        7.7215569072
 H        -2.3547247701        2.8070567173        7.8611675118
 H        -0.2617532874        4.9928478487        6.8274410888
 H        -2.0147436460        5.2436034387        7.1014200040
 H        -1.0848283594        6.3243934606        5.9057614823
 H        -3.0083324317        3.9908417942        3.7703049081
 H        -3.5553632224        4.6187821098        5.2614633041
 H        -2.7550530661        5.6450273187        3.9343509742
 H        -1.7324973777        0.6242458339        8.5725840584
 H        -2.1993978917        0.3533118830        6.7916030257
 H         1.9774990750        0.1626056203        5.1956857403
 H         2.9816136461       -1.2168080636        5.6115695777
 H         2.2406693415       -0.7386223167        8.2498561094
 H         1.4407255237       -2.3519427420        8.7176610391
 H         0.8668879914       -0.7891427490        9.2564962206
 H        -1.7153113113       -1.8419087363        7.0251100302
 H        -0.4794251554       -3.1647039583        7.5273472492
 H        -0.9242679724       -1.7833106409        8.6826449438
 H         2.1480392004       -2.2854580935        3.3670407545
 H         2.9816651324       -0.7236809114        3.1417452197
 H         3.1031574350        0.3801399235        0.2356984739
 H         2.0670469772        0.3567520196       -1.0848329082
 H         1.5702245135       -1.9796203085       -0.4085169170
 H         1.6408478932       -2.7639210459        1.1908153352
 H         2.7017074697       -1.4907774659        0.8576612415
 H        -0.8975265267       -1.4784064808       -0.0099707570
 H        -1.1248411553       -1.9859364069        1.6023406284
 H        -1.4687287050       -0.4141856348        1.3286213853
 H         1.7386412418        2.7800843311       -1.2672887174
 H         2.6708678115        2.8252276628        0.3597685211
 H         6.5595423682        1.5512208461       -3.7931167747
 H         6.7021336908        1.3617807155       -1.9637117159
 H         2.6369931575        2.1297663771       -4.6980887162
 H         1.8659857558        3.1528397336       -3.5056898684
 H         1.8777092918        1.4368868626       -3.1273928449
 H         5.1532171865        3.3912553151       -4.5032090417
 H         4.2009500643        4.4102859401       -3.3976072343
 H         5.5278182842        3.6185473291       -2.7625698378
 H         6.1875375605       -1.2137535345       -2.3571003618
 H         7.7472210391       -0.6101816793       -2.6090314304
 H         3.9660201707       -1.1562691521       -3.9713877871
 H         3.6831497905       -2.3708039587       -5.2425471993
 H         5.2137409100       -3.5398585016       -6.1338539492
 H         6.8526462805       -3.4640294512       -6.6318216994
 H         5.6605663810       -2.0629000017       -6.7548277066
 H         7.5860273620       -4.3331916715       -4.1595877813
 H         8.6306456933       -3.1260049496       -4.9915934021
 H         8.0462358038       -2.9269832596       -3.2975606468
 H         2.7318589801       -3.9739398434       -3.8100264450
 H         2.8915023576       -2.8580870993       -2.4281344061
 H        -2.3608991436       -1.7355944706       -2.7935208619
 H        -1.8881258253       -0.9095480096       -4.3575055096
 H        -0.2868595307       -0.4952169221       -4.8828387124
 H        -0.0485949597       -1.2812562534       -6.5375345484
 H         1.3629530963       -0.8263260334       -5.5823731256
 H         0.9962255949       -4.5976447082       -5.1017801026
 H         0.1740778251       -3.6357944090       -6.4457971706
 H         1.8024249034       -3.4214900892       -5.8417718471
 H        -3.6192618127       -3.4361558665       -4.1912623053
 H        -3.4405275723       -2.4548815060       -5.5562633697
 H        -6.5575550965        0.1091209483       -2.8913242954
 H        -8.1968827259       -0.3075949941       -3.0768297919
 H        -7.1720580166       -0.2544717113       -5.0686721354
 H        -7.9371862934       -1.6452823745       -5.6098975189
 H        -6.2946390099       -1.2068986345       -6.1706957656
 H        -7.4274673872       -3.9432073310       -4.3529443558
 H        -6.1403059047       -3.7508834513       -5.5185239081
 H        -5.8510962575       -4.1271527910       -3.6751382988
 H        -8.3710439501       -0.0062181854       -0.6506044252
 H        -7.2929033622       -1.2847675028       -0.5421204131
 H        -4.7349994851        3.5718935775        1.7467834903
 H        -3.4407121303        2.9730177956        0.7478236279
 H        -5.1810236182        2.9407861084        0.1260825650
 H        -8.3597171618        1.1820276284        1.2706348105
 H        -7.3640447394        2.5222745007        1.8784549603
 H        -7.5535735095        0.9609517420        2.7449759197
 H        -6.9971019656       -1.0818177398        1.6642850611
 H        -5.3871327658       -1.2141388931        0.9633774959
 H        -5.5278765079       -0.8121315850        2.5975382125
 Na       -1.5871089911        1.7145554948        2.3789927492
