155

 C         0.8291610441        4.7945601861        4.5309112356
 C        -0.5295895661        4.3642768277        4.1496383023
 C        -1.6438423682        4.2464589081        5.2601210233
 C        -1.9490835675        2.6379448905        5.4176007116
 C        -1.9979603343        2.0886616336        6.8516920484
 C        -1.3087191389        4.8617330600        6.6213718945
 C        -2.9338604221        4.8019080037        4.6392121080
 O        -0.6810108053        3.9466515977        3.0501422540
 O        -2.3326839469        1.9139473836        4.5261106256
 C        -1.5929003800        0.6378171461        6.7670167139
 C        -0.1662534380        0.3883903828        7.0963590801
 C         0.3875019669       -1.1736267167        7.0931647749
 C         0.7847432123       -1.4687084613        5.5756364904
 C         1.8876516118       -0.5474397060        5.0437413067
 O         0.5894357225        1.2937157296        7.3653787295
 O         0.3280999557       -2.3962831298        4.9722215837
 C         1.6748514581       -1.3061350046        8.0152277298
 C        -0.7863041749       -2.1138792892        7.6121380369
 C         2.1831619570       -0.9566657064        3.6290636236
 C         0.9735140802       -0.5227641921        2.7426970273
 C         0.8731588177       -0.9306894995        1.2564842969
 C         0.9956487320        0.4470205116        0.5544780246
 C         2.2280368012        0.7067413218       -0.2221670561
 C         2.0431158553       -1.9134660684        0.9438400901
 C        -0.5653845444       -1.5506023802        0.9451908805
 O         0.0284047093        0.0209470820        3.2716488664
 O         0.2090054071        1.3165017056        0.8556594487
 C         2.1209329270        2.2284732390       -0.6384637944
 C         3.4657261965        2.8694423100       -1.1113066227
 C         4.0177545976        2.5882847421       -2.5249681211
 C         4.9592111053        1.2761906451       -2.6401855913
 C         6.3437260944        1.2673285607       -3.2098780293
 O         4.1024012949        3.5929776258       -0.3266896993
 O         4.3828250360        0.1923789459       -2.3532347501
 C         2.7837200057        2.2943687246       -3.4461566953
 C         4.8439232448        3.8598406947       -2.9791656802
 C         6.7852665969       -0.1577227818       -3.2260905871
 C         6.4393370548       -0.8404429727       -4.6007276702
 C         6.3716265150       -2.3219833548       -4.7200641063
 C         5.0779107458       -3.2484045946       -4.0772274203
 C         3.7495211671       -2.5309517692       -4.0956885952
 C         6.3760742601       -2.7748104695       -6.2388215553
 C         7.6935753116       -2.9603740334       -4.0226103662
 O         6.3068160095       -0.0747352541       -5.5445132667
 O         5.2641909380       -4.2823325882       -3.4974063440
 C         2.7030170976       -3.1663310348       -3.1845114887
 C         1.3324423328       -2.4309116403       -3.2365425536
 C         0.4014159227       -2.6304390009       -4.4974343040
 C        -1.0667273154       -2.9955430850       -3.8768997474
 C        -2.1687057476       -1.9530770219       -3.7746306606
 O         0.9986417543       -1.6848525559       -2.2834957283
 O        -1.2640258993       -4.0644187018       -3.3438932492
 C         0.3740347566       -1.1857669983       -5.1119211952
 C         0.8897642270       -3.7726266811       -5.4210738094
 C        -3.3914962143       -2.3332029773       -4.5861253049
 C        -4.7525312409       -1.4404659471       -4.2657993804
 C        -6.1765500360       -2.1263432082       -4.1543327864
 C        -6.8239731366       -1.7111795964       -2.7581186770
 C        -7.3867111145       -0.2983022577       -2.5795693620
 C        -7.0244932937       -1.6027745255       -5.3675200077
 C        -6.2102933926       -3.7212861672       -4.1984769750
 O        -4.5887943389       -0.2728533552       -4.1477429211
 O        -6.8777167396       -2.5093228457       -1.8444348716
 C        -7.5143224326        0.1595368707       -1.0843706909
 C        -6.1229164212        0.6296647329       -0.5512647309
 C        -5.9311902556        0.5775594867        1.0466676556
 C        -4.4973821773        1.2472538622        1.3349353881
 C        -4.2369020555        2.7104681636        0.9755572010
 O        -5.2602134958        0.8081027683       -1.3401067030
 O        -3.6170845821        0.6365493084        1.8231960802
 C        -6.9864959160        1.3651109902        1.8111393644
 C        -5.8860148397       -0.8461357339        1.6980841424
 H         0.8276144301        5.7892476795        4.9455338887
 H         1.2324462320        4.0638022832        5.2570656659
 H         1.4503878766        4.9042239492        3.6842668269
 H        -1.2556819157        2.6989562341        7.4295507264
 H        -2.9552504263        2.3319712337        7.2660943826
 H        -0.2917457355        4.6207096188        6.8898105054
 H        -2.0816488211        4.6288886998        7.4100320073
 H        -1.4257487448        5.9329171102        6.5258735587
 H        -3.0162060121        4.4341475972        3.6331707247
 H        -3.7947609799        4.3689734552        5.1932240684
 H        -2.8322275183        5.8226918253        4.5401643191
 H        -2.1761232285        0.0716623613        7.5592563160
 H        -1.6575771778        0.3133343381        5.7411158212
 H         1.3674078350        0.4027984194        4.9612915249
 H         2.8313177269       -0.4078565731        5.5523987261
 H         2.1298982737       -0.3807232690        7.7486256698
 H         2.3806607625       -2.0344448047        7.6837370267
 H         1.4578195970       -1.4331586489        9.0714464223
 H        -1.4949142020       -2.0053778087        6.8031606424
 H        -0.4101157051       -3.1169396012        7.7097193438
 H        -1.1191754393       -1.6353285154        8.5259292079
 H         2.4303911174       -2.0325841328        3.4975353242
 H         3.0444563983       -0.3848223530        3.2955167373
 H         3.0899966092        0.6228423220        0.4807815355
 H         2.5337311525        0.1689810222       -1.1010259210
 H         1.9991878599       -2.3221367669       -0.1338779677
 H         1.8782059379       -2.7719900116        1.5293988145
 H         2.9700521759       -1.4444545001        1.2081619219
 H        -0.6248400477       -1.8546854545       -0.1379943251
 H        -0.8228365380       -2.4679779518        1.4804992398
 H        -1.5005248977       -0.9300554669        1.1767643938
 H         1.1606947574        2.3520358222       -1.3057745078
 H         1.8477922346        2.7932306846        0.2862417895
 H         6.2622633870        1.5795529522       -4.2380974879
 H         6.9653542787        1.9289666708       -2.5969368927
 H         3.2238637511        2.2605710460       -4.4589202430
 H         2.0359408022        3.0632829326       -3.5039691263
 H         2.4527720749        1.3339981169       -3.1644949082
 H         5.4421739974        3.7057566955       -3.8808571051
 H         4.1549800219        4.6430705307       -3.1638527486
 H         5.4301646112        4.1732601007       -2.2016628414
 H         6.3566374352       -0.7532738143       -2.4112088389
 H         7.8590719273       -0.3351291250       -3.1766616996
 H         3.8831038808       -1.4927602151       -3.6084095786
 H         3.4476363347       -2.4515133763       -5.1059092416
 H         7.0733950878       -3.5507981637       -6.2765786850
 H         6.7909562787       -1.9003174286       -6.8168381613
 H         5.3534866066       -3.0592181188       -6.4926494362
 H         7.6781344284       -4.0145753290       -4.1884258928
 H         8.5478689229       -2.3854500822       -4.3875165095
 H         7.7452826222       -2.9378140254       -2.9486324421
 H         2.4587768381       -4.1657533101       -3.5224250724
 H         3.0822112804       -3.2038391400       -2.1534096304
 H        -2.5165756262       -1.9497130447       -2.7545990421
 H        -1.7641759121       -0.8788158621       -3.9187470944
 H         0.2775075622       -0.4464567763       -4.3336258376
 H        -0.5556522578       -1.0724517319       -5.6709972369
 H         1.3691873253       -0.9520354822       -5.6144460871
 H         0.9133680022       -4.8562067671       -5.1333387673
 H         0.0669904412       -3.7630931171       -6.1733265722
 H         1.8237343216       -3.7112384086       -5.9965754078
 H        -3.5803061965       -3.4292912155       -4.3919267309
 H        -3.1090444995       -2.1287176031       -5.6562218339
 H        -6.7860338881        0.4432127205       -3.1125393039
 H        -8.4015506112       -0.3815583729       -3.0899599888
 H        -6.9011490434       -0.5604441822       -5.5222100370
 H        -8.0969157051       -1.8200595278       -5.3582521232
 H        -6.6969684353       -2.1558291425       -6.2897675766
 H        -7.2224616747       -3.9803177401       -4.3454537924
 H        -5.5804560002       -4.1233384828       -5.0242241317
 H        -5.7537492368       -4.0108140756       -3.2662865283
 H        -8.2600745184        0.9662210721       -1.1133265127
 H        -8.0365792984       -0.6128376843       -0.4914018809
 H        -5.0856641249        3.3726492099        1.1200390365
 H        -3.3322137137        2.9947154027        1.5106223316
 H        -4.1257024450        2.6211379922       -0.1424196325
 H        -7.6747201744        0.8231025718        2.5694629419
 H        -7.8068908385        1.9423786112        1.2555793113
 H        -6.5704537713        2.1397882995        2.4033806908
 H        -6.5685500572       -1.5474770875        1.3195710830
 H        -4.9413086902       -1.2831392735        1.5300983117
 H        -5.9201487475       -0.7816989516        2.8223522551
 Na       -1.3693281867        1.6740194044        2.3986249886
