155

 C         0.2366322248        5.1392665247        4.5153908434
 C        -0.8429980868        3.9708132479        4.1493365062
 C        -2.0206292916        3.7890746617        5.1840985848
 C        -2.4211562769        2.1994595533        5.2541606953
 C        -2.6481571962        1.4841735424        6.5686465098
 C        -1.6829709762        4.3058375342        6.5900203030
 C        -3.2912269812        4.4166164433        4.6154050978
 O        -0.7315166803        3.2748234594        3.1630730860
 O        -2.7744541992        1.5543686627        4.2281844390
 C        -1.9605267701        0.1604532239        6.8623459126
 C        -0.5328588646        0.2526785340        7.3338502763
 C         0.4138397564       -1.0472751972        7.2961730597
 C         0.6800332798       -1.4935844477        5.7678556995
 C         1.8605375029       -0.8625560777        5.0899638634
 O        -0.0665662893        1.3163657308        7.8425303693
 O        -0.0313832532       -2.3250768464        5.2317273577
 C         1.6822680230       -0.8402879124        8.1227672469
 C        -0.3746373860       -2.2358001024        8.0462967005
 C         2.0619902901       -1.1312574610        3.5930320264
 C         1.2878962670       -0.1864589032        2.6643862603
 C         1.0549994730       -0.7457087171        1.2298403296
 C         0.9443910047        0.4781299026        0.2828292349
 C         2.1314990513        0.9829147095       -0.5655482257
 C         2.1831925126       -1.7217111696        0.7486000896
 C        -0.2300480377       -1.5454449480        1.3766770416
 O         0.8489786001        0.8405201595        3.1240541441
 O        -0.0671313755        1.2150153361        0.3410595252
 C         2.0061455530        2.4302076058       -1.2516168949
 C         3.3237116389        3.0792756736       -1.1936974992
 C         4.2964354748        3.0698324382       -2.4665140614
 C         5.1909543696        1.7691548811       -2.3328410269
 C         6.4251536693        1.7597628629       -3.1911276683
 O         3.7364305485        3.3184545837       -0.0910309838
 O         4.8411264543        0.8797018176       -1.6616981989
 C         3.4799452569        3.0179193150       -3.7796684034
 C         5.1513197029        4.3668166341       -2.4776741276
 C         6.9791081922        0.3876357230       -3.6022717489
 C         5.8602046392       -0.5931345594       -4.2679491664
 C         6.2636596972       -2.0857660436       -4.5945160774
 C         5.1868523532       -3.2385118423       -3.9338816977
 C         3.7665554251       -2.6264593342       -3.8725923016
 C         5.9653394032       -2.3852605321       -6.1917136614
 C         7.6824099042       -2.5101286087       -4.1507963670
 O         4.7817310629       -0.1175245708       -4.6552277333
 O         5.4470339211       -4.4209953225       -3.8081517706
 C         2.5959250350       -3.4442815346       -3.2710092552
 C         1.3808983178       -2.5124272200       -3.2968089191
 C         0.2391268623       -2.5971435859       -4.3302720038
 C        -1.0250017079       -2.8896920461       -3.5076693439
 C        -2.1772665437       -2.0084849931       -3.9517180654
 O         1.3764561509       -1.6182258405       -2.4784882840
 O        -1.0646375850       -3.7356755449       -2.6143380557
 C         0.3138307133       -1.2195343318       -5.0204282926
 C         0.4950755232       -3.7107539788       -5.3180986458
 C        -3.5642640159       -2.4473723064       -3.2847417673
 C        -4.6640560506       -1.9489584412       -4.1937029126
 C        -6.1890479656       -2.3070838402       -4.0941420958
 C        -6.7458622735       -1.5001511449       -2.8578925078
 C        -7.0104391861        0.1090515659       -2.9442961564
 C        -6.8750215422       -1.7944739534       -5.4298401446
 C        -6.5248975863       -3.8071402838       -3.7782517956
 O        -4.3630481464       -1.0066074575       -4.9403342505
 O        -6.7455805104       -2.0361967434       -1.7761500668
 C        -6.9298975806        0.7144526134       -1.5713372069
 C        -5.5842735189        0.5358526068       -0.9354089969
 C        -5.4441855712        0.4138932662        0.6700261497
 C        -4.1016655828        0.9590237405        1.1594006710
 C        -3.8740394961        2.4884434678        0.9233230179
 O        -4.6024092417        0.3368367453       -1.7038618081
 O        -3.2503207681        0.1850138166        1.6876389919
 C        -6.5705505044        1.2679848488        1.3832320521
 C        -5.6624629050       -1.0901668939        0.9444897844
 H        -0.2145920004        6.0939254402        4.6930828614
 H         0.9155105802        4.8414414632        5.3600742246
 H         0.9271547259        5.2161690895        3.6573550002
 H        -2.4939195922        2.1923228889        7.3673702547
 H        -3.7709796933        1.4142706276        6.4855424069
 H        -0.7204170017        3.9072049350        6.9503513209
 H        -2.3494218116        4.0554894275        7.3721895276
 H        -1.4729473510        5.3579026765        6.5794804786
 H        -3.4722392559        4.1270525612        3.5527229871
 H        -4.2331286366        4.2677857516        5.1847042566
 H        -3.2395041549        5.5374171611        4.7710335649
 H        -2.5394315908       -0.4277088935        7.6196593224
 H        -1.8465060067       -0.3947351113        5.9627846358
 H         1.8770396286        0.2052161797        5.4569714352
 H         2.7529899846       -1.2903440463        5.5742957791
 H         2.1562623048        0.0507875358        7.7184362580
 H         2.3339607851       -1.7128705987        8.0169225085
 H         1.4757772417       -0.5285657119        9.2231005321
 H        -1.1133986541       -2.3992279649        7.2574415813
 H         0.3548378521       -3.0246800879        8.1259579003
 H        -0.7248548544       -1.9443813143        9.0030389702
 H         1.5648949652       -2.0781057269        3.3852399008
 H         3.0695691274       -1.1088168416        3.2991090637
 H         3.0371050566        1.1052015908        0.0722545162
 H         2.2791483117        0.2334122040       -1.3251086792
 H         1.9207835344       -1.7968057070       -0.2598150386
 H         2.0965372099       -2.6105358965        1.3470402887
 H         3.2617250208       -1.3214659455        0.9493746951
 H        -0.4012560935       -2.0322091390        0.4420614478
 H        -0.1853678207       -2.3437483277        2.0935042463
 H        -1.1164424054       -0.9964594862        1.4631972616
 H         1.5865645102        2.2194653092       -2.2600286378
 H         1.2904191618        2.9538427630       -0.6051914621
 H         6.1548439717        2.3276648379       -4.0590501410
 H         7.2755264557        2.3337252086       -2.7368148150
 H         4.1587938866        3.4260986651       -4.5663283168
 H         2.5755881364        3.7028257625       -3.6532237772
 H         3.0977845874        2.0459504261       -4.0734395959
 H         5.9870403685        4.2272131011       -3.1892686457
 H         4.4623218579        5.2218111969       -2.8412947907
 H         5.4609200129        4.6002207229       -1.3990400214
 H         7.4118182562       -0.1393978877       -2.7365811040
 H         7.6994573783        0.5778554945       -4.4302022960
 H         3.8135246042       -1.5842618247       -3.3631112383
 H         3.5432640758       -2.3624277243       -4.8957338914
 H         4.9131208303       -1.8919348150       -6.3521657947
 H         6.2121241108       -3.4080396932       -6.2454227787
 H         6.7960524784       -1.8656432664       -6.6878766322
 H         7.9099397072       -3.5677186278       -4.3423534926
 H         8.3409731895       -1.9964314349       -4.8532397496
 H         7.8437106306       -2.0997578034       -3.2010678732
 H         2.4216634472       -4.3017226534       -3.9064832106
 H         2.8608349671       -3.7601971284       -2.2540709053
 H        -2.0913096851       -0.9863919741       -3.6659732884
 H        -2.3277734686       -1.9789320253       -5.0769578594
 H        -0.0915055059       -0.4340187818       -4.3901012440
 H        -0.1315391594       -1.2370515823       -6.0215736212
 H         1.2798207268       -1.0441299523       -5.2354150603
 H         0.1948797782       -4.6965736101       -5.0047419318
 H        -0.1568614194       -3.5586229371       -6.1793850826
 H         1.4772037742       -3.8097086450       -5.7914456747
 H        -3.6956744124       -1.8550472613       -2.3220702375
 H        -3.5631300388       -3.4822282991       -3.0828409964
 H        -6.3753050853        0.5929736149       -3.6697772888
 H        -8.0711827678        0.1673172058       -3.2710096430
 H        -6.0712951357       -1.4725193386       -6.0874976699
 H        -7.5534342367       -0.9644579569       -5.2450881811
 H        -7.3137251330       -2.6382251139       -5.9589468642
 H        -7.5214978210       -3.9423713719       -3.4133354756
 H        -6.3571133003       -4.4419660213       -4.6874464131
 H        -5.8961158425       -4.1375271544       -2.9367303662
 H        -7.0981069186        1.8491817595       -1.7360077938
 H        -7.8295063595        0.3546161795       -1.0481206163
 H        -3.0909355982        2.4473841321        0.0887346287
 H        -4.7834607248        2.9065968658        0.6099410552
 H        -3.4861325511        3.0238565109        1.7404124607
 H        -7.2813072372        0.6384083316        1.7867093823
 H        -7.0488933476        1.9754184693        0.7418878693
 H        -6.2096129027        1.8302317589        2.2816238169
 H        -6.3294369514       -1.5407532132        0.1088388734
 H        -4.7176397822       -1.6919805525        0.9148457380
 H        -6.2307515621       -1.2394837468        1.8277092505
 Na       -1.3684000525        1.1870807432        2.3069409860
