155

 C        -0.0982475207        5.0453707269        5.0123215933
 C        -1.0724352832        3.9598102061        4.4590539604
 C        -2.3343269145        3.4639738394        5.4427068860
 C        -2.3024898594        1.8497855840        5.4766927593
 C        -3.0222172175        1.1926242718        6.6243294661
 C        -2.2018911966        4.1463182428        6.7752288307
 C        -3.7292857891        3.7715200169        4.7927046069
 O        -0.9659218987        3.5002229769        3.2965700883
 O        -1.9844193389        1.2408579950        4.4879779341
 C        -2.2144045268       -0.0827284935        7.0919198258
 C        -0.6923767028        0.2434936591        7.2111232986
 C         0.3315135421       -0.8937218726        7.4160707366
 C         0.6609272687       -1.4372760990        5.9318741683
 C         2.0118573146       -1.0987944807        5.2830819539
 O        -0.3296236352        1.3758183146        6.8336919842
 O        -0.1583157527       -1.9492146689        5.1877301594
 C         1.6748437979       -0.3261396015        8.0232874765
 C        -0.2871055834       -2.1370996649        8.1208448594
 C         2.2959487783       -1.3423446517        3.8329597574
 C         1.3421505220       -0.5496512990        2.8467548207
 C         1.3726111544       -0.8490826078        1.3367465120
 C         1.3651304288        0.4676637063        0.4263068589
 C         2.5276038816        0.6226000347       -0.5108461075
 C         2.6450442976       -1.7882900120        1.0386411051
 C         0.0353706346       -1.5791820826        1.0790693829
 O         0.5424836348        0.3456556990        3.2566054667
 O         0.4420526742        1.2567232643        0.5429053725
 C         2.3785061623        1.8382194253       -1.4267650560
 C         3.3445481332        3.0480802911       -1.2561653201
 C         4.4426249093        3.2005062708       -2.3220996059
 C         5.4541283523        1.9991296416       -2.2054944472
 C         6.6463377585        1.9718570736       -3.1440072853
 O         3.3392778364        3.8975593677       -0.4150959523
 O         5.2555358615        1.3063199917       -1.2062407917
 C         3.7759340665        3.1935616481       -3.7440346201
 C         5.2573398812        4.5511169697       -1.9713424706
 C         7.1494915888        0.5459941059       -3.5343853836
 C         6.0410565745       -0.2514349360       -4.3456428594
 C         6.1800462048       -1.7343738680       -4.7972072217
 C         5.2361346881       -2.6918997689       -4.0315067190
 C         3.6532322085       -2.5541191440       -4.3637818178
 C         5.7446456148       -1.8549083777       -6.4181606050
 C         7.6154683470       -2.3634617704       -4.5288615766
 O         4.9581188486        0.2733122232       -4.4785683124
 O         5.5467890252       -3.3232259433       -3.0429061955
 C         2.8267398251       -3.1993485371       -3.2408261069
 C         1.3344019581       -2.7002209905       -3.0026814475
 C         0.2449855920       -2.7672668773       -4.0922294454
 C        -1.2563299914       -2.6608591996       -3.4184924635
 C        -2.4458630729       -2.0199995862       -4.2878469349
 O         1.0060138748       -2.3428140024       -1.8433816389
 O        -1.6062363423       -3.2763015819       -2.4393160639
 C         0.3410885033       -1.5378676679       -4.9798614457
 C         0.3147523939       -4.0553810614       -4.8909183947
 C        -3.7764399440       -2.4664727725       -3.7256096475
 C        -4.9644467890       -2.1924516143       -4.6736190438
 C        -6.4203772323       -2.5402431608       -4.2153463872
 C        -6.6826298000       -1.5051842723       -2.9779814525
 C        -6.5825810450       -0.0175047719       -3.2577172168
 C        -7.3679343639       -2.2271329856       -5.4339102976
 C        -6.5710851729       -3.9673891955       -3.6491537153
 O        -4.7233428808       -1.6699910393       -5.7509653529
 O        -7.1447442199       -1.9515165006       -1.9487267393
 C        -6.7429324816        0.7760506308       -1.9972202814
 C        -5.4420080999        0.5476852351       -1.1795454105
 C        -5.4118411257        0.4534905017        0.4641730335
 C        -3.9890886885        0.9627640570        0.8186146908
 C        -3.6353890156        2.3341490512        0.2277145456
 O        -4.4135487195        0.1876650974       -1.7507451734
 O        -3.2898219921        0.3955302563        1.6630642106
 C        -6.3929519811        1.3057601976        1.3632946265
 C        -5.5677415597       -1.0479436395        0.8161047542
 H        -0.7799181665        5.9221897272        5.2162709710
 H         0.3328830254        4.8035985416        5.9898374864
 H         0.6592818365        5.2750693171        4.2921682344
 H        -3.2691602732        1.9696760979        7.4399801070
 H        -3.9728884838        0.8536555496        6.3566040051
 H        -1.3074929711        3.8138699018        7.2289259677
 H        -2.9592079458        4.0793603000        7.5507815291
 H        -2.1800294094        5.2064248432        6.8199324648
 H        -3.7098076197        3.5475271317        3.7096571020
 H        -4.5223000486        3.1053335774        5.2345332143
 H        -3.9683524018        4.7795604498        4.6678198331
 H        -2.6305809648       -0.5699120341        7.9762154287
 H        -2.2413237967       -0.9543163032        6.3789845576
 H         2.3286451410       -0.1359557690        5.6336330342
 H         2.7897237383       -1.7156323398        5.8199439732
 H         1.8939899536        0.6927050147        7.7163806502
 H         2.4951487135       -0.9982203319        7.8097640518
 H         1.6651613970       -0.3640320107        9.1573148213
 H        -0.8940317774       -2.7437789604        7.4790379962
 H         0.6217942655       -2.6141444268        8.3716211419
 H        -0.7453082581       -1.7343244969        8.9987577544
 H         2.1885644751       -2.3707209435        3.6330712316
 H         3.2683259677       -0.8976464044        3.6201251870
 H         3.4910191022        0.7480688138       -0.0158477820
 H         2.6646195332       -0.1679363774       -1.2731205164
 H         2.3722138063       -2.3107861156        0.0876757794
 H         2.7112669743       -2.5220251309        1.7548484007
 H         3.5020876327       -1.1121513634        1.0257040505
 H         0.0151286415       -2.0929205002        0.1353435360
 H        -0.1798394844       -2.2571026663        1.8484550139
 H        -0.7769167749       -0.8703464365        1.1118999556
 H         2.4562923932        1.5375893753       -2.5494892982
 H         1.3119083924        2.2274407618       -1.2871186564
 H         6.3047495459        2.6254836361       -3.9647517435
 H         7.4810461285        2.4933105545       -2.7582199985
 H         4.3954701450        3.8383255331       -4.4769502763
 H         2.7899950195        3.6733253532       -3.8159095442
 H         3.6810799748        2.1857311450       -4.1689312261
 H         5.7674624476        4.9987950173       -2.9131811405
 H         4.5958541290        5.3418741233       -1.5302891159
 H         5.9257383045        4.3418008093       -1.1389411845
 H         7.3270708966       -0.0440257407       -2.6218129002
 H         8.0713850177        0.5883453379       -4.1127753400
 H         3.4414440528       -1.4914469025       -4.3723155521
 H         3.3492703592       -2.8409649009       -5.4289328619
 H         6.7728663671       -2.1706970759       -6.8617476501
 H         5.2497772314       -0.9542875072       -6.6366836862
 H         5.0825396803       -2.6435957262       -6.5033945614
 H         7.6231758077       -3.4185853065       -4.7668052810
 H         8.3230756042       -1.7848506996       -5.1311949777
 H         7.8841489738       -2.3376554755       -3.4644796487
 H         2.7119053656       -4.2837341801       -3.2773744780
 H         3.3870034905       -3.0813267387       -2.2836473168
 H        -2.5696988926       -0.9029221725       -4.4137352840
 H        -2.3794042628       -2.5057958004       -5.2457255470
 H        -0.1701082818       -0.7653509749       -4.4754255441
 H        -0.1869878469       -1.6468484919       -5.9071386701
 H         1.3662704771       -1.1489355786       -5.1238418076
 H        -0.1482253858       -4.9565512691       -4.4642998279
 H        -0.0769666487       -3.8569371615       -5.8874150093
 H         1.3249055335       -4.3628282957       -5.0083937242
 H        -3.8998823729       -2.1020790328       -2.6734569286
 H        -3.8550845978       -3.5893260832       -3.4117114570
 H        -5.6127687069        0.2420507421       -3.8035842769
 H        -7.4162502360        0.2222506155       -3.9895192398
 H        -6.7181431396       -1.8797390860       -6.2190077304
 H        -8.1775583604       -1.5281616382       -5.1955092549
 H        -7.8274132473       -3.2151072316       -5.7257835177
 H        -7.5123360758       -4.1710836022       -3.1486702381
 H        -6.5681025801       -4.7510364894       -4.4179071728
 H        -5.7790720420       -4.1932720142       -2.9527743767
 H        -6.9802514120        1.8011328166       -2.3058390567
 H        -7.6875152096        0.4222455172       -1.4253650645
 H        -3.5201708279        3.0291911939        1.1023023354
 H        -2.6672492707        2.3457651243       -0.2207112775
 H        -4.4131346880        2.6228789179       -0.4534785874
 H        -7.3649295686        1.2763611089        0.7968719063
 H        -6.0653555388        2.3827008331        1.4745840249
 H        -6.4065615336        0.8183407117        2.3106808560
 H        -6.5617023885       -1.3125049124        0.5022451746
 H        -4.7793840788       -1.6194083658        0.4005996186
 H        -5.4276396273       -1.3032075576        1.9204085710
 Na       -1.2623919484        1.4210797040        2.1906557049
