155

 C        -0.5378496410        4.1003692539        5.5424635694
 C        -1.5531102469        3.6091088507        4.6373927711
 C        -2.9644284520        3.0043248451        5.1250377670
 C        -2.7395514965        1.4282095068        5.1683875842
 C        -2.9980497588        0.6459953454        6.4526751314
 C        -3.3177732348        3.6208329909        6.5479690081
 C        -4.0430864042        3.3739184008        4.1140201064
 O        -1.2089979692        3.4245579845        3.5029054779
 O        -2.5831886771        0.8108622072        4.1256351792
 C        -1.8488328239       -0.4058548042        6.8172676723
 C        -0.5193662852        0.2376762958        7.2359166407
 C         0.6706248956       -0.7636390711        7.6981659295
 C         1.1916432458       -1.3936510669        6.3459517251
 C         2.4067839696       -0.7311533885        5.6003210486
 O        -0.3015493579        1.3690410886        7.3806247208
 O         0.6868269899       -2.4375128811        5.9106999387
 C         1.7784105806        0.1499213142        8.3097030476
 C         0.1550227590       -1.8623593182        8.6615522422
 C         2.4842454246       -1.2015588579        4.1843683772
 C         1.3545214270       -0.5116001463        3.2767828318
 C         1.3293915053       -0.8998675941        1.7805412455
 C         1.4274126281        0.4074061644        0.9345055791
 C         2.6666880440        0.6224055496        0.1646588429
 C         2.4314322159       -1.9346598411        1.4456194826
 C        -0.0935158898       -1.4264018881        1.5107202111
 O         0.5502876738        0.2460683292        3.8477707578
 O         0.5770880578        1.3330332474        0.9108321634
 C         2.4573859815        1.6321263580       -1.0175268488
 C         3.1942042187        2.9736487286       -0.7696521159
 C         4.5793828148        3.3016786106       -1.7559186362
 C         5.5459633196        2.1600831825       -1.7533529513
 C         6.7165502787        2.1099313630       -2.6763423804
 O         2.7782039088        3.7147357780        0.0252384763
 O         5.4558985498        1.1960406358       -0.9828122208
 C         4.0169398792        3.6376773068       -3.2256618387
 C         5.2890800440        4.5478610529       -1.2269608868
 C         6.9150407457        0.6271907951       -3.3438260461
 C         5.8751976143        0.3293398053       -4.4462294695
 C         5.8388364554       -1.1806610163       -4.9087497111
 C         4.7588819831       -1.7715606460       -3.8372216878
 C         3.3125298479       -1.7312270766       -4.0603623405
 C         5.4060800983       -1.3519749553       -6.3556715586
 C         7.1635961946       -1.8773678059       -4.6751271198
 O         5.2829969698        1.1659403899       -5.0805515085
 O         5.2900714309       -2.2995657963       -2.8846696994
 C         2.5146085633       -2.8971774300       -3.2981552497
 C         1.1164318299       -2.4666254791       -3.1967755321
 C         0.0627804216       -3.0648483869       -4.2603788798
 C        -1.4195150894       -2.9329415089       -3.6904347337
 C        -2.6111528823       -2.8125875483       -4.5760629821
 O         0.6723613121       -1.5665201568       -2.4738816611
 O        -1.6049807115       -3.2015755467       -2.5424838458
 C         0.1846617703       -2.1413395843       -5.5421411733
 C         0.4096353596       -4.5316126273       -4.6658033825
 C        -3.9197567525       -2.7753788508       -3.8815975050
 C        -5.1684628175       -2.8093661432       -4.8941469779
 C        -6.6584327232       -2.9560400285       -4.4927491295
 C        -6.6728246783       -1.9732514966       -3.1823890536
 C        -6.7063511725       -0.4689372459       -3.3872122990
 C        -7.5616347833       -2.6374180933       -5.7213933413
 C        -6.9421056636       -4.3533936762       -3.9542976309
 O        -4.8572151839       -2.5687579356       -6.0399378285
 O        -6.5495110929       -2.4756437186       -2.0859325767
 C        -6.5371357300        0.3667047659       -2.1350733233
 C        -5.0786142023        0.6024449460       -1.7926977887
 C        -4.8357703583        0.8714560136       -0.2448240477
 C        -3.3465995223        1.3424042356        0.0042119252
 C        -2.9236198817        2.5139805889       -0.8355346574
 O        -4.1526711068        0.6586743960       -2.5836807193
 O        -2.5592852979        0.7887801388        0.7862991865
 C        -5.6812310017        2.1277810772        0.1530544691
 C        -5.1039468556       -0.3784781193        0.6994956595
 H        -0.9507319300        4.8909670396        6.2442661399
 H        -0.3346019461        3.2137633771        6.1386590479
 H         0.3471703086        4.5461842767        5.1191050331
 H        -2.9432398700        1.4087907323        7.2037368440
 H        -3.9383833946        0.0876260875        6.3056156338
 H        -2.7037700246        3.4927589308        7.4272343496
 H        -4.3135850426        3.3316065795        6.8894668593
 H        -3.3104169016        4.7217421863        6.5139635458
 H        -3.9004907425        2.8192340592        3.1533878538
 H        -5.0827197436        3.1124109956        4.3522285505
 H        -4.1754983785        4.4586711856        4.0611830156
 H        -2.1316648931       -1.1882617207        7.5738850225
 H        -1.5044085183       -1.0066571147        5.9461067677
 H         2.3940577813        0.3932600838        5.6435160089
 H         3.2486303348       -1.1528386809        6.0756514727
 H         2.4151481301        0.5932066773        7.5205289680
 H         2.5273984385       -0.4289691867        8.8761311911
 H         1.4541932666        1.0661793024        8.8115171841
 H        -0.6103784970       -2.3978512479        8.1513993199
 H         1.0256948027       -2.4556913195        8.9681829001
 H        -0.3085139037       -1.2462382211        9.4633833439
 H         2.2273791813       -2.2783718438        4.2037948028
 H         3.4407716457       -1.1876383416        3.7284693082
 H         3.5419952898        0.8422155486        0.7873982529
 H         3.0198015896       -0.3311674426       -0.2983888635
 H         2.0033776247       -2.3208377632        0.4694261208
 H         2.4834407758       -2.7101721392        2.1643470692
 H         3.4549167812       -1.5603131331        1.3738107130
 H        -0.1762124765       -1.9365752226        0.5835756907
 H        -0.2976965616       -2.0563318219        2.3058459845
 H        -0.8548848363       -0.6535037392        1.5708703062
 H         2.8780591143        1.3194051101       -1.9801457318
 H         1.3695075616        1.9376861517       -1.2628794565
 H         6.4853511826        2.7274550426       -3.5194513495
 H         7.6839215121        2.3187900008       -2.2198533925
 H         4.7190706973        4.2616708076       -3.7979208321
 H         3.1133909866        4.2547923016       -3.2474401241
 H         3.6760237656        2.7450993268       -3.8388843966
 H         5.8997198264        5.0436905138       -2.0992687832
 H         4.5529665943        5.3055960051       -0.8701385205
 H         5.9754102460        4.4460958055       -0.3749247890
 H         6.9818272361       -0.2149946666       -2.7027541187
 H         7.8635383029        0.6003894000       -3.9203510463
 H         2.7425711777       -0.7780468934       -3.8888285305
 H         3.2087751091       -1.9905557380       -5.1147227926
 H         4.9067310704       -2.4174480844       -6.4746672697
 H         6.1804619221       -1.3108925777       -7.0232840957
 H         4.6858850360       -0.6298209144       -6.6330952640
 H         7.3391288765       -2.8218795816       -5.1249238140
 H         8.0171769967       -1.3251350843       -5.0231044912
 H         7.3092412534       -2.0130636707       -3.5907850421
 H         2.5505228477       -3.8108084809       -3.9562543145
 H         2.8687449601       -3.0500976669       -2.3096961622
 H        -2.4771637270       -1.9813158435       -5.2876347722
 H        -2.6347613956       -3.6696493349       -5.3074783662
 H        -0.0069229467       -1.1597439280       -5.2482553638
 H        -0.5142714701       -2.5023754602       -6.2229438223
 H         1.0963988555       -2.2740951906       -6.1518323378
 H         0.8139035469       -5.0779390441       -3.7906450636
 H        -0.4427181797       -5.0442442712       -5.0620202755
 H         1.1355785745       -4.3912836664       -5.4679391082
 H        -4.1424145270       -1.8381725567       -3.3099244467
 H        -3.8839048017       -3.6355712905       -3.1699063425
 H        -5.9227585850       -0.0659244214       -4.1204865233
 H        -7.6969916058       -0.1011791720       -3.8128606298
 H        -7.0041804038       -2.1003415805       -6.5147625018
 H        -8.3954826331       -2.0039505552       -5.4467333856
 H        -7.8749024356       -3.5230643910       -6.2141283338
 H        -7.9261542902       -4.5212455286       -3.4711429553
 H        -6.8917175248       -5.1306787062       -4.6535156830
 H        -6.2504528664       -4.7097861382       -3.2211051078
 H        -7.0452290204        1.3723960494       -2.2305104912
 H        -6.9272908529       -0.1815098996       -1.2962062785
 H        -1.8851671440        2.3207308957       -1.1329737299
 H        -3.5449459068        2.6101098198       -1.6911150376
 H        -2.9612240444        3.4945018690       -0.3337331760
 H        -6.5816908035        1.7858072363        0.7152084225
 H        -5.8996039222        2.6682738131       -0.7989419202
 H        -5.0855658950        2.6664790881        0.8258368176
 H        -6.0945297791       -0.7334076618        0.5229998764
 H        -4.4707152055       -1.2062129392        0.4524744305
 H        -5.1951207522        0.0394896935        1.7651759854
 Na       -1.0367279157        1.4170200803        2.4728635870
