155

 C        -1.3175705577        4.2085578726        6.0862660443
 C        -1.6592696176        3.2783371918        4.9312868382
 C        -3.0883309781        2.5485657857        4.9641458990
 C        -2.8006535607        0.8311437601        5.2654216495
 C        -2.9456703703        0.2504639242        6.6257641765
 C        -4.0857288792        3.0799730621        6.1228549417
 C        -3.7866951043        2.6282391642        3.6576014401
 O        -0.9534777979        3.0779116244        3.9579368676
 O        -2.4366495348        0.1744834403        4.3412751679
 C        -1.7365896642       -0.5798550140        6.9682736357
 C        -0.5092425447        0.2478934577        7.5406300388
 C         0.8523606364       -0.5881633932        7.8885513379
 C         1.4868235554       -1.0668070829        6.4834949966
 C         2.2917434814        0.0388927152        5.7062013895
 O        -0.5481384165        1.4477458589        7.7596876939
 O         1.5503679291       -2.2488966105        6.2949974244
 C         1.7637137688        0.4110792540        8.6529097350
 C         0.6122058043       -1.8574843269        8.6765232658
 C         2.4582578673       -0.4485137082        4.2934323240
 C         1.2770208303       -0.2419786860        3.3004263262
 C         1.3545687444       -0.8336732242        1.8858972367
 C         1.2479461352        0.4287088087        0.7911007812
 C         2.2949039493        0.4119084132       -0.2878597225
 C         2.5032437825       -1.7241983243        1.4895574375
 C        -0.1438310590       -1.5426890029        1.6109229710
 O         0.2655431323        0.3149299141        3.7181373703
 O         0.5110103279        1.3203087849        1.0899295761
 C         2.2803263467        1.7155813345       -1.0715396759
 C         3.3528816757        2.6617936492       -0.3946217791
 C         4.4695066623        3.2599715891       -1.2895632417
 C         5.3144085697        1.9750126480       -1.6570606687
 C         6.6389747960        2.2501518873       -2.3365996383
 O         3.4296982672        2.6492443245        0.8263459969
 O         4.9629535964        0.8841514822       -1.2595501211
 C         3.8209782144        3.9090285160       -2.5813122849
 C         5.3317083132        4.3882862232       -0.4389976157
 C         7.0683298856        1.0889354005       -3.2051602737
 C         5.9611696829        0.6978034383       -4.1583754810
 C         5.8808084876       -0.7174817519       -4.7292182477
 C         4.7685652913       -1.6186011872       -4.1055700036
 C         3.3088749703       -1.3395377170       -4.4637450176
 C         5.5970346895       -0.5066762368       -6.2398981304
 C         7.1522513636       -1.4766269372       -4.6838736521
 O         5.1585209000        1.5449936648       -4.5339271095
 O         5.0175345799       -2.5195882768       -3.3256721499
 C         2.3927490249       -2.0672592779       -3.4116147725
 C         0.9426203016       -1.8925382952       -3.7297211447
 C         0.2454072793       -3.1068328841       -4.2753921973
 C        -1.1571231044       -3.1881640630       -3.6538274980
 C        -2.4637213298       -2.8923164537       -4.4833946167
 O         0.3521597949       -0.8377404834       -3.6514751037
 O        -1.2675603434       -3.6798741874       -2.5467129936
 C         0.2094199025       -2.9799308299       -5.9060354833
 C         0.8047924876       -4.4342816281       -3.9800673144
 C        -3.8827860265       -3.3234100053       -3.8513706036
 C        -5.0120729057       -3.1262231412       -4.8913394645
 C        -6.4604927631       -3.0817251656       -4.3497445612
 C        -6.4532308330       -1.8824226359       -3.3632133290
 C        -6.6501878737       -0.5110445728       -3.9575191045
 C        -7.4420815550       -2.9470465966       -5.5255176892
 C        -6.8147318605       -4.3274614203       -3.5703107155
 O        -4.8565609075       -2.9635512235       -6.0576727914
 O        -6.1311173195       -2.1272969139       -2.2141193135
 C        -6.8161503352        0.4846639913       -2.7627640474
 C        -5.2550794054        0.6396510315       -2.2262079131
 C        -4.9039236218        1.1917910546       -0.7560512156
 C        -3.3504181684        1.2936167560       -0.4880134716
 C        -2.4159091923        1.6693928734       -1.5964285642
 O        -4.3871704710        0.3564662920       -3.0298757924
 O        -2.8301366231        1.0365283425        0.6410449440
 C        -5.5699226650        2.6276714730       -0.6680882138
 C        -5.5177258897        0.2821404863        0.3882599391
 H        -1.9803681614        5.0953107117        6.1743233752
 H        -1.2476018266        3.7338175285        7.0256324533
 H        -0.3298355451        4.5299480321        5.8337370597
 H        -3.1485342110        1.0770150840        7.4096139990
 H        -3.7623813289       -0.4565922707        6.6859035347
 H        -3.5582015975        3.1967571439        7.0777258814
 H        -4.8652070944        2.2980093913        6.3357407814
 H        -4.6846341741        3.9679463392        5.8514666368
 H        -3.2437314285        2.2007297489        2.8296419770
 H        -4.7522438497        2.1188716662        3.8015997578
 H        -3.8028518595        3.5828242391        3.3023633658
 H        -2.0440656672       -1.2189656879        7.7790161590
 H        -1.4482224485       -1.1138045968        6.0707383170
 H         1.7823001583        1.0691874989        5.7986749798
 H         3.2838239042        0.1440926370        6.1404849044
 H         2.1104038034        1.1421256295        7.9626149105
 H         2.5167258060       -0.0201001910        9.2720935581
 H         1.1330888023        0.9812013354        9.4268746415
 H        -0.2491576904       -2.4341980763        8.2759068957
 H         1.5204116812       -2.4708023009        8.7503490394
 H         0.4173058241       -1.4866903911        9.7030058795
 H         2.7065349810       -1.5265319802        4.3351392202
 H         3.3372894565       -0.0808467211        3.7948536694
 H         3.2250187536        0.2798834689        0.1936315697
 H         2.1973385421       -0.4438552957       -0.9500612649
 H         2.3310377475       -2.1018301140        0.4885527531
 H         2.7512611707       -2.5728050078        2.0892989409
 H         3.4755069250       -1.1088380666        1.4045883483
 H        -0.0376278631       -2.2599397306        0.7219313807
 H        -0.2506924559       -2.2759511519        2.4541826446
 H        -0.9885128674       -0.8212592411        1.5152089036
 H         2.7896623394        1.6414210243       -2.0904985370
 H         1.2967490982        2.2583100154       -1.0949049097
 H         6.5530066317        3.1948331416       -2.9067193742
 H         7.4388102352        2.3949398886       -1.5995990018
 H         3.9401550636        5.0253421810       -2.5945395058
 H         2.8102811055        3.6347238095       -2.6943537701
 H         4.3686271054        3.6369323487       -3.4345128882
 H         6.0269358690        4.8698688042       -1.0842076709
 H         4.7356881347        5.1717605312        0.0141306245
 H         5.9181445184        3.8364101412        0.2617977430
 H         7.2160241358        0.2732684575       -2.4787503428
 H         8.1096978700        1.2541453313       -3.6848071410
 H         3.2062127022       -0.2664124995       -4.6121799459
 H         3.1835233162       -1.7994929620       -5.4375940026
 H         5.4752964722       -1.4173971829       -6.7081157540
 H         6.3490374178        0.0950453754       -6.8836734483
 H         4.5248365106       -0.0976868786       -6.4412561058
 H         7.2175353379       -2.2607854221       -5.4387674102
 H         8.0501916572       -0.8312232741       -4.7179939926
 H         7.2822470398       -2.0243012449       -3.7250769483
 H         2.8040680931       -3.0511664410       -3.0746289494
 H         2.5719115614       -1.5297113200       -2.5315322981
 H        -2.5313016518       -1.7985845716       -4.6368560135
 H        -2.2913744360       -3.4440429068       -5.3761951972
 H        -0.4256433667       -2.1030930187       -6.2402976438
 H        -0.4754125702       -3.8204091929       -6.2080787140
 H         1.1360243607       -2.9225041765       -6.3548716717
 H         0.7095985412       -4.6402148606       -2.8758532684
 H         0.1479354071       -5.1170982273       -4.5289592844
 H         1.8026218083       -4.5007788571       -4.3368833625
 H        -3.9912188264       -2.6252646595       -3.0219164705
 H        -3.7748032860       -4.4432332218       -3.6242145272
 H        -5.7854659792       -0.1040929501       -4.4583498775
 H        -7.4499900110       -0.3298080981       -4.6336023387
 H        -8.4707849785       -3.0266253864       -5.1924765389
 H        -7.1805961834       -3.7047747006       -6.2740222568
 H        -7.3343539997       -2.0342076025       -6.1400522809
 H        -7.8779942458       -4.3750686341       -3.2731372784
 H        -6.6825794391       -5.3096455756       -4.0901493405
 H        -6.3021906701       -4.4940609190       -2.6291772589
 H        -7.1571804533        1.4752586941       -3.1723431728
 H        -7.4945870105        0.1642570560       -1.9323891567
 H        -1.4536857076        2.0415124826       -1.1377223051
 H        -2.1076625581        0.7985399566       -2.1496912846
 H        -2.8074701619        2.3769049129       -2.2540557746
 H        -4.8830949668        3.3326980498       -0.9399340797
 H        -5.9312521646        2.7766951011        0.3401629333
 H        -6.4204349046        2.7103052813       -1.3832568679
 H        -6.6117095454        0.3004943312        0.3482733814
 H        -5.1531378680       -0.7179697361        0.3060202563
 H        -5.0704221437        0.5132140208        1.3418578103
 Na       -1.2760659528        1.3403757812        2.4683806321
