155

 C        -1.6113890547        3.9479523242        6.1887018224
 C        -2.1774589740        3.0134172897        5.0345570596
 C        -3.4981723496        2.4017418568        5.1368335011
 C        -3.0729759299        0.8559968960        5.3536979199
 C        -2.9198197747        0.1825379230        6.7512758883
 C        -4.4251611065        2.9263865645        6.2442244210
 C        -4.3435091831        2.4995389248        3.7894699991
 O        -1.4784094400        2.9063887367        4.0003588783
 O        -2.5851835793        0.2757409784        4.3972302006
 C        -1.6359800259       -0.5298652959        6.9655701457
 C        -0.4367017281        0.2908070700        7.4679238964
 C         0.9457631234       -0.5058504233        7.8365280454
 C         1.6452857051       -0.8782108058        6.4489466575
 C         2.3931307906        0.2464822540        5.7077328010
 O        -0.4531843804        1.5331386218        7.3232656104
 O         1.6583030921       -2.0249268708        6.0773952196
 C         1.8265570371        0.5232823079        8.6182037949
 C         0.7022496350       -1.8531654939        8.6688870424
 C         2.5523096148       -0.0812522915        4.2550828439
 C         1.2879843712       -0.2305809714        3.4487063252
 C         1.3223986716       -0.9421293816        1.9440309055
 C         1.1269796046        0.3244164779        0.9372745171
 C         1.8226642987        0.3286012653       -0.4195464582
 C         2.6739575407       -1.7610673588        1.6455817531
 C         0.1611437887       -1.8451685661        1.8538309188
 O         0.2275155294        0.2651477528        3.7837219735
 O         0.2138471146        1.0709092749        1.0877010750
 C         2.2863313631        1.7510061923       -1.0236816711
 C         3.4047676106        2.4667248841       -0.1628089853
 C         4.5600907173        3.1923252992       -0.9524711998
 C         5.4653916332        1.9194101569       -1.5764691576
 C         6.7468352958        2.3154392621       -2.3990132398
 O         3.2179905622        2.6421089713        1.0085060703
 O         5.0152091048        0.8243490903       -1.3362362815
 C         4.0970654478        4.0740693005       -2.1043659729
 C         5.4519940573        3.9914752020        0.0639259835
 C         7.0994133142        1.3080756863       -3.4445976759
 C         5.9111912480        0.7479745640       -4.1860100519
 C         5.9669597862       -0.5739903602       -4.9908394479
 C         4.7484541889       -1.4546819360       -4.2095005022
 C         3.3354474084       -1.0136775204       -4.5911733467
 C         5.5116064812       -0.3917962081       -6.4073863788
 C         7.3154305084       -1.4091449850       -4.9801130292
 O         4.8398324710        1.3687819574       -4.0483658211
 O         5.0505115496       -2.3439339659       -3.4496832247
 C         2.4055487774       -1.7721093723       -3.6516098192
 C         0.9275742738       -1.8794110822       -4.1554449128
 C         0.3307400910       -3.2858730056       -4.5358057075
 C        -1.0329680164       -3.3929397550       -3.6860189253
 C        -2.2685623284       -2.7576136183       -4.4946420646
 O         0.2718676003       -0.8733119343       -4.2370108471
 O        -1.0725424826       -3.5857339009       -2.4518560929
 C         0.1507094069       -3.3808864034       -6.0516248930
 C         1.1195074116       -4.4458153059       -4.0090016887
 C        -3.6848489198       -3.0845858378       -3.7857685688
 C        -4.7969066836       -2.9856081648       -4.8299437757
 C        -6.2838836525       -3.1371099292       -4.1878039180
 C        -6.4482855585       -1.8502964856       -3.2166631717
 C        -6.9416463879       -0.5567781253       -3.8498850477
 C        -7.2651729017       -3.2193975469       -5.3559562423
 C        -6.2299215556       -4.3718370884       -3.2584688115
 O        -4.6384216040       -2.9439327508       -6.0430431222
 O        -6.0565848545       -1.8974696324       -2.0472450521
 C        -6.3585805355        0.7796490482       -3.4037553170
 C        -5.0075806711        0.5584468733       -2.5503481343
 C        -4.8995516516        1.2104525333       -1.0022397490
 C        -3.4454221515        1.2698702990       -0.2936041889
 C        -2.2044706648        1.5652569440       -1.1213534803
 O        -4.1376046065       -0.0124516927       -3.0857002575
 O        -3.4517783770        1.3242814721        0.9663404819
 C        -5.1258259304        2.7008342676       -1.1067445068
 C        -5.9043853572        0.4201090734       -0.0800421215
 H        -2.3971412995        4.6587917615        6.4729882087
 H        -1.4235262767        3.4616614569        7.1485617194
 H        -0.6651177961        4.4364953772        5.9182886662
 H        -3.1742931801        0.8651956122        7.6676479744
 H        -3.7234689123       -0.4919518089        6.8802000021
 H        -3.7929725698        2.8774170670        7.1464894037
 H        -5.1869793505        2.1113295358        6.3577796847
 H        -4.7814028501        3.9243410301        6.0613585111
 H        -4.5251536631        1.5691816956        3.2693807750
 H        -5.2966168355        2.8855398256        4.1740294704
 H        -3.9073096665        3.1517065028        3.0913980284
 H        -1.7741637693       -1.3402346256        7.6561274756
 H        -1.3258976820       -0.8656308596        5.9669938344
 H         1.8862462176        1.2458813101        5.7743393283
 H         3.3686881012        0.4274132820        6.1043140835
 H         1.5032662975        1.4911880997        8.2945018038
 H         2.8569167363        0.4295101752        8.4009395551
 H         1.6184502570        0.5381683349        9.6751037021
 H         0.7689522148       -2.6875056812        7.9430284267
 H         1.4876521901       -1.9312369718        9.3904713646
 H        -0.2666304466       -1.8955076277        9.1083377873
 H         3.1016538246       -1.0533438939        4.0981583251
 H         3.1733381028        0.6510918684        3.6984441329
 H         2.6391266419       -0.3332574480       -0.4415079597
 H         1.1140941398        0.0307201793       -1.2211024764
 H         2.6307123139       -2.2801561977        0.7150903027
 H         3.0915539584       -2.5608783578        2.3129211952
 H         3.5688407982       -1.0840306581        1.4912663445
 H        -0.1031169455       -1.9622150625        0.7746335653
 H         0.3765340438       -2.8532134117        2.2744186068
 H        -0.6218065337       -1.2859323537        2.3402532626
 H         2.6682261740        1.5891853526       -2.0786461631
 H         1.4411042497        2.4552730212       -1.0769253154
 H         6.5854446311        3.3227543441       -2.8490344306
 H         7.5340951925        2.5551770471       -1.6875400072
 H         2.9642325087        4.1320430870       -2.2316269902
 H         4.5766565177        3.7901176473       -3.0379953366
 H         4.2855874685        5.0492067949       -1.7384879891
 H         6.3750722214        4.1778227397       -0.3423683719
 H         4.9010794968        4.8826442924        0.3368972922
 H         5.6982091418        3.3477658377        0.9205491667
 H         7.7699727555        0.5369526195       -3.0769203293
 H         7.7666056317        1.8766176626       -4.1666179069
 H         3.2580058641        0.0646478300       -4.5283267120
 H         3.1269405173       -1.1932244866       -5.6379234764
 H         5.2671321533       -1.3852652652       -6.8188553591
 H         6.2492968866       -0.1234311579       -7.2182437787
 H         4.7564481513        0.4110674425       -6.5324200535
 H         7.0687227381       -2.4468249917       -5.2250848458
 H         7.8838014190       -1.0946887957       -5.8831520180
 H         8.0248341757       -1.2460737821       -4.1657072671
 H         2.7452472090       -2.7576628895       -3.2803952240
 H         2.4658988408       -1.2155013909       -2.7268071976
 H        -1.9416965756       -1.6968115840       -4.4078998179
 H        -2.2340890357       -3.1251038187       -5.4661799127
 H        -0.5518328746       -2.5454054281       -6.3841472835
 H        -0.3345086751       -4.3761849501       -6.4015205448
 H         1.0634745573       -3.4082915063       -6.5901515818
 H         1.0213064634       -4.4434246442       -2.9190464592
 H         0.6837268551       -5.3721243139       -4.3573142764
 H         2.0615097998       -4.4069996307       -4.4329332309
 H        -3.9180124603       -2.3995916227       -2.9813091946
 H        -3.5434309478       -4.1377625062       -3.3354352215
 H        -6.8712874813       -0.6421093466       -4.9035111156
 H        -7.9967047887       -0.4752018242       -3.7293966233
 H        -8.2064846117       -3.5891080373       -5.0280924063
 H        -6.8468490037       -3.9045830238       -6.1142794039
 H        -7.3468589425       -2.2335456813       -5.9016421316
 H        -7.1507200158       -4.5010018032       -2.7358731412
 H        -5.9287599340       -5.3290272647       -3.7315387215
 H        -5.4989894549       -4.3769882194       -2.4720894011
 H        -5.9651786020        1.4297151642       -4.1619499237
 H        -7.1046368564        1.4080651362       -2.8713348678
 H        -1.3840674881        1.9233771163       -0.5391401519
 H        -1.8306520944        0.6220560799       -1.6273111023
 H        -2.3954450924        2.3591618654       -1.8953762716
 H        -4.2156771269        3.2917478579       -1.2821417856
 H        -5.5236023810        3.1190961521       -0.1720639372
 H        -5.9094169119        2.9689109078       -1.9102028229
 H        -6.9436142867        0.6301877458       -0.4428644682
 H        -5.7973103492       -0.6628442133       -0.1434967693
 H        -5.7632877989        0.7154609091        0.9045888911
 Na       -1.5998055342        1.1840707185        2.5156404709
