155

 C        -3.1988581296        4.3084749974        4.9550100741
 C        -3.2067633017        2.8381289307        4.5019929943
 C        -4.0674155027        1.7752850075        5.3543092395
 C        -3.1028949430        0.5371380762        5.6172372269
 C        -3.0161643422       -0.1027752778        6.9724430254
 C        -4.5421181731        2.4646757885        6.6809236466
 C        -5.2215129027        1.2006281515        4.5606671428
 O        -2.7940652658        2.5912852659        3.3862756586
 O        -2.4082526103        0.0892282930        4.6790093494
 C        -1.7223570212       -0.7992824323        7.2730149410
 C        -0.5322093521        0.2071268648        7.2069360188
 C         0.8781242859       -0.4124594321        7.4468717036
 C         1.5912277148       -0.4463258377        6.0713757960
 C         2.0822922102        0.8582904745        5.5930786894
 O        -0.7539927611        1.4110437204        7.2711483992
 O         1.5344559841       -1.4881412135        5.4076826617
 C         1.5382969094        0.5562614501        8.4358729219
 C         0.8495020212       -1.8241302424        8.0370872917
 C         2.4503430731        0.8344610168        4.0985408196
 C         1.1591017559        0.3609533850        3.3146486446
 C         1.3357931482       -0.6579973577        2.1106510703
 C         0.9637325153        0.2252366960        0.9349413191
 C         1.7124066849        0.2515958953       -0.3334426808
 C         2.6745797062       -1.4044002092        2.1825897025
 C         0.1570943970       -1.7716020103        2.2435971747
 O         0.1362428437        0.8500804456        3.7341847638
 O        -0.0942875219        0.8680131078        1.0910269471
 C         2.0963817758        1.8177646980       -0.6712801943
 C         3.1707521752        2.0955200740        0.3263324862
 C         4.5387360660        2.8575406575       -0.0570712592
 C         5.2809407740        1.7340979644       -0.9732407520
 C         6.1507168619        2.1126708563       -2.1373242629
 O         3.0350335762        1.8264516154        1.4555399031
 O         5.1339690219        0.6032663680       -0.6201081174
 C         4.2569016567        4.1703078198       -0.8212319737
 C         5.4271730210        3.0859444705        1.1852711037
 C         6.5571807302        1.0711620720       -3.0391248773
 C         5.9186478110        1.2163789941       -4.4237434406
 C         5.9687264535       -0.0250183219       -5.4200261360
 C         4.9911265542       -1.1463038134       -4.9629489398
 C         3.5741480327       -1.2106176447       -5.5731143981
 C         5.7452830561        0.6041122196       -6.8146650164
 C         7.3946176282       -0.5838739552       -5.4854245447
 O         5.2888638247        2.2227637449       -4.7632106520
 O         5.3366213739       -1.8393712921       -4.0314156290
 C         2.7521542477       -1.8719951712       -4.4598287387
 C         1.2396475028       -2.2562222340       -4.8190799994
 C         0.8330567893       -3.7574035902       -4.9395426713
 C        -0.4925435041       -3.8260785707       -4.1573033522
 C        -1.8489662579       -3.3199344353       -4.7160438188
 O         0.4366919026       -1.3826666240       -4.9878597914
 O        -0.3534848583       -4.1820997659       -2.9963419206
 C         0.7255040338       -3.9239999743       -6.6266509223
 C         1.7936735821       -4.7400626192       -4.3902176949
 C        -2.9617977841       -3.5924345462       -3.7114258564
 C        -4.3440876563       -3.2133987774       -4.3988065090
 C        -5.6753583697       -3.0369167795       -3.4350139116
 C        -6.1945043721       -1.5900584405       -3.1187279496
 C        -5.8435751924       -0.4985756090       -4.1156775314
 C        -6.9155127832       -3.5021289809       -4.2975871173
 C        -5.5909565422       -4.0374857221       -2.2739165691
 O        -4.4152493823       -3.1157945485       -5.6229224295
 O        -7.0432330609       -1.3966566852       -2.2447010952
 C        -5.8271822200        0.8555537473       -3.3960927763
 C        -4.7439690578        0.8441234997       -2.2606016137
 C        -4.9084718905        1.8384280254       -1.0157070272
 C        -3.5413190075        1.4929559500       -0.2163507569
 C        -2.2206580571        1.8704191333       -0.8332804961
 O        -3.8909414193        0.0363944334       -2.1732642436
 O        -3.5394899442        1.1974890643        0.9914846379
 C        -4.8122305723        3.3308149250       -1.4916349727
 C        -6.2280924149        1.6275445483       -0.2865227441
 H        -4.2373002383        4.8007010770        4.9413440511
 H        -2.7042525570        4.3832782490        5.9044911196
 H        -2.6476925793        4.8737999239        4.1877762144
 H        -3.2434631654        0.5807552499        7.7850343198
 H        -3.9079719427       -0.8038701554        6.9082714926
 H        -3.7921841237        3.0077720107        7.2438979682
 H        -5.0369857979        1.6505490977        7.1660716147
 H        -5.4000275724        2.9960943302        6.2780400955
 H        -5.2680275074        0.0887856451        4.6988134248
 H        -6.1456375589        1.6667942108        4.9872300565
 H        -5.1593791225        1.4642849699        3.5447309686
 H        -1.6847061948       -1.2395107211        8.3032497551
 H        -1.5684615307       -1.5710345879        6.5694728741
 H         1.4093485698        1.7095034529        5.7739126145
 H         3.0223176730        1.1467067772        6.1074964154
 H         1.4763130277        1.5181108543        8.0357113542
 H         2.5160063834        0.2419652667        8.5666150283
 H         1.1172537258        0.4993560721        9.4429238402
 H         0.1914648979       -2.5468164957        7.6258683389
 H         1.8081841142       -2.3139818507        8.0277023089
 H         0.6920438302       -1.7444619565        9.1134642758
 H         3.2677446935        0.1382645567        4.1185964772
 H         2.7436180938        1.8575577677        3.8446161870
 H         2.6346685423       -0.3488200248       -0.4019818359
 H         1.0118940413       -0.1406246836       -1.0552144516
 H         2.7292410563       -2.3607128902        1.6682339784
 H         2.9866170361       -1.7285505451        3.1512378725
 H         3.6381505883       -0.9138145428        1.8330208259
 H         0.3064744477       -2.6356640654        1.5982846237
 H         0.1343158228       -1.9756588244        3.2926733223
 H        -0.6936513741       -1.2110858391        1.9175917000
 H         2.2402873579        1.8614798772       -1.7847797532
 H         1.1376832216        2.4279560737       -0.5046159675
 H         5.4941000973        2.7496184823       -2.7068865944
 H         6.9794606932        2.7357844272       -1.7363942490
 H         3.1360732133        4.2184426392       -1.0972168096
 H         4.8867127351        4.3482925643       -1.6580470541
 H         4.4058583848        4.9807963049       -0.0736144697
 H         6.1897241419        3.7712882536        0.8488441465
 H         4.9203492768        3.5950259841        2.0295724383
 H         5.7300094062        2.0780170291        1.5200151833
 H         6.2494796112        0.0699053237       -2.6185800021
 H         7.6550488762        1.0671775751       -3.0664674722
 H         3.2520989824       -0.1894640236       -5.7751703352
 H         3.5952258525       -1.8056463100       -6.4804554731
 H         5.2068180770       -0.2599208022       -7.3350410223
 H         6.7749994063        0.8281201748       -7.2243673649
 H         5.0380764506        1.4076072954       -6.8877732246
 H         7.3993764443       -1.3329049379       -6.2554384258
 H         7.9621390374        0.2922420238       -5.7618031945
 H         7.5994683935       -1.0868798408       -4.5316410002
 H         3.3967411441       -2.7122232401       -4.0498872902
 H         2.6046201316       -1.1329398739       -3.7137642082
 H        -1.6875002474       -2.3486292115       -5.0936947701
 H        -2.0682179519       -3.9711804738       -5.6685048220
 H        -0.1002826426       -3.3305123137       -7.1782503074
 H         0.3323736800       -4.9454830116       -6.9323058057
 H         1.6536068930       -3.6458954168       -7.0644015223
 H         1.7585021780       -4.6748182960       -3.2797211153
 H         1.5883456734       -5.7126266993       -4.8054923517
 H         2.7738061223       -4.4098303073       -4.6406192269
 H        -2.9157505807       -3.1381902199       -2.6506207267
 H        -2.9911413293       -4.6355811773       -3.4421766079
 H        -4.8830535203       -0.6584448763       -4.5433937225
 H        -6.6283179368       -0.5198244686       -4.8675167468
 H        -7.7789667163       -3.1427742185       -3.7340098720
 H        -6.9131523924       -4.5711534393       -4.3481817246
 H        -6.8871014758       -3.1235856171       -5.3029177206
 H        -6.5377368426       -4.2708801164       -1.7461547108
 H        -5.2876273508       -4.9473317244       -2.7472937852
 H        -4.9853208825       -3.6917760379       -1.4742748533
 H        -5.4940790888        1.6517507015       -4.1634122908
 H        -6.7671882126        1.1233656685       -2.9512542853
 H        -1.6498958502        2.3960711464       -0.1023689069
 H        -1.6460594193        0.9369475304       -1.0924681204
 H        -2.3061301664        2.4669011912       -1.7907192407
 H        -4.0350956927        3.7582527774       -2.0826967654
 H        -4.8556149769        3.9245052059       -0.5814728323
 H        -5.7172081931        3.7559619189       -2.0636618477
 H        -7.0730664058        2.1284693704       -0.7556674378
 H        -6.4413840491        0.5800454323       -0.2523307473
 H        -6.1696880197        1.9534203789        0.7623796166
 Na       -1.8676747864        0.5877522068        2.5090033668
