155

 C        -4.5272872014        3.8990127861        5.8677761155
 C        -4.0882054176        2.8643128554        4.8283217490
 C        -4.5901111463        1.3062300143        5.0124522836
 C        -3.3937886369        0.4758235177        5.4309125434
 C        -3.3009514348        0.0331284012        6.8519105040
 C        -5.8440793741        1.1695008444        5.8595354975
 C        -4.9861103280        0.8543464888        3.5375548827
 O        -3.1790509576        3.0466739675        4.0121883855
 O        -2.5550164751        0.1167900999        4.6262446795
 C        -1.9625742048       -0.7375648306        7.2206110182
 C        -0.8311208435        0.2382763400        7.7779611394
 C         0.6151325248       -0.3635901353        7.8269470359
 C         1.3699377165       -0.2464703636        6.4336171859
 C         1.5577519845        1.0881849477        5.7770591005
 O        -1.1045812506        1.2767177290        8.2983692607
 O         1.8108899726       -1.2445128703        5.8383418692
 C         1.3170831887        0.4749341398        8.8937727553
 C         0.6231670413       -1.8791977550        8.1598793540
 C         2.2256293123        1.1395564648        4.3603459877
 C         1.2037884409        0.7218429000        3.2956890827
 C         1.2724429581       -0.5249695694        2.1658916327
 C         0.7545921368       -0.0501141256        0.8274615754
 C         1.7324833261        0.0679507899       -0.3631133288
 C         2.5971788058       -1.2800784148        2.1354656982
 C         0.2923403854       -1.5388751203        2.8978444348
 O         0.1848120469        1.3987338369        3.3595321125
 O        -0.3947886969        0.3190680472        0.7835491899
 C         2.1137772193        1.5196965862       -0.6268086968
 C         3.1736101727        1.8979700109        0.5364332011
 C         4.6299331821        2.3440830807        0.1082130738
 C         5.1262036356        1.6321567485       -1.2486274117
 C         6.3494475622        2.2103893084       -2.0132411446
 O         2.8374981294        1.9606794419        1.6573803222
 O         4.4497397640        0.7207416354       -1.6331028493
 C         4.4145834928        3.8238435362       -0.3594089226
 C         5.6565903872        2.1859819022        1.2716226132
 C         6.6410071190        1.3614775100       -3.1756821690
 C         5.6806981270        1.4845967955       -4.3628132480
 C         5.7421584368        0.4263547973       -5.5623542213
 C         5.1208807107       -0.8219546439       -4.9326248780
 C         3.6239327506       -0.9994691308       -4.8443528797
 C         5.0290289069        1.0337767630       -6.8400845324
 C         7.2058774089        0.1116553914       -6.0197438485
 O         5.0430903000        2.5149225095       -4.3679016083
 O         5.8318160714       -1.6794786574       -4.4749732949
 C         3.0503095464       -2.4251739789       -4.9927755762
 C         1.7486654981       -2.5497871450       -5.6703931194
 C         1.1679154867       -4.0629142030       -5.6763308488
 C        -0.0226719824       -4.0223232648       -4.4987088680
 C        -1.3581747556       -3.3415832197       -4.7350216610
 O         1.0659844610       -1.6538100168       -6.0898674203
 O         0.3716730941       -4.2640058558       -3.3716196229
 C         0.5501302629       -4.4041818838       -6.9934595613
 C         2.1748078708       -5.1398045703       -5.2898434759
 C        -2.4057060546       -3.5090539173       -3.5830935880
 C        -3.8753659734       -3.2581751406       -4.1865403025
 C        -5.1418867976       -3.2261824754       -3.1539099387
 C        -5.5100990394       -1.8194640289       -2.8206360040
 C        -5.5218607460       -0.7957165070       -4.0411434099
 C        -6.3918478628       -3.9291792039       -3.8381609501
 C        -4.8788102132       -3.9761379456       -1.8807296233
 O        -3.9461974555       -3.0689380909       -5.3953014820
 O        -5.8758563067       -1.4934958114       -1.6811743817
 C        -5.4595449666        0.6101754697       -3.3889555661
 C        -4.4331294508        0.8969580278       -2.2911304071
 C        -4.9544588213        1.9634219202       -1.1238655663
 C        -3.7969984056        2.1362181383       -0.1382728422
 C        -2.7982894568        3.2935053639       -0.0781702392
 O        -3.2766301382        0.6502451783       -2.2917569242
 O        -3.6182272868        1.2088333413        0.5964449736
 C        -5.2813711579        3.2609883240       -1.7558948959
 C        -6.1558690211        1.4078620554       -0.2460376744
 H        -5.6313278972        3.7577016254        6.1148768814
 H        -4.0028665363        3.7027297701        6.8070576998
 H        -4.2195527909        4.8933381555        5.5839986110
 H        -3.4633121377        0.7512259867        7.6148743292
 H        -4.0356611276       -0.8232402099        6.6859346970
 H        -5.4457919967        1.3796458850        6.8500926759
 H        -6.1939763403        0.1630996513        5.7473625534
 H        -6.5985973281        1.9227627885        5.5100288847
 H        -4.6990294644       -0.1990864102        3.3333071909
 H        -6.0830073715        0.8820220670        3.3688494471
 H        -4.5552117100        1.4771499044        2.7797795677
 H        -2.0872721951       -1.4762256234        7.9448553219
 H        -1.6397329609       -1.3318938081        6.3099026074
 H         0.6807256811        1.7291905834        5.7093605461
 H         2.2686792477        1.6966148964        6.4437875567
 H         1.4156255718        1.4764225834        8.6131096289
 H         2.2817527308        0.0931521020        8.9156536515
 H         0.8196732244        0.3714328651        9.8978249834
 H         0.4746232826       -2.5652432246        7.3884121996
 H         1.5240295473       -2.2255455382        8.6427978411
 H        -0.1595876877       -2.2425969553        8.7968733316
 H         3.1444920828        0.6057684644        4.4147462730
 H         2.5454645335        2.1616335814        4.2083994251
 H         2.5985632718       -0.6054898827       -0.2080169659
 H         1.1092039191       -0.3210554284       -1.1026010031
 H         2.6648346859       -2.0145219339        1.2770806258
 H         2.7983171945       -1.7603820482        3.0502909309
 H         3.5351480766       -0.6452692983        1.9727667934
 H         0.4356230096       -2.5105600649        2.4640433376
 H         0.7152311466       -1.4400593569        3.8493972464
 H        -0.6567747679       -1.0967828082        2.8946013958
 H         2.4492792386        1.5220605028       -1.7278257671
 H         1.1322873665        2.1127224233       -0.5184483993
 H         6.1129214697        3.2619524818       -2.2580101735
 H         7.2998715568        2.1824690587       -1.5117671343
 H         4.3036390225        3.8835957063       -1.4576623085
 H         5.2101269727        4.4508720982        0.0313044217
 H         3.5098585480        4.3443204649        0.0865233772
 H         6.6336879370        2.3205813570        0.7021781947
 H         5.4903408275        2.8931178155        2.1188808606
 H         5.7139428993        1.1689990026        1.7066571643
 H         6.7165018019        0.3085113252       -2.8000821243
 H         7.6456383776        1.6442761819       -3.5747365605
 H         3.2416471602       -0.7146738384       -3.8990222687
 H         3.1004638679       -0.2736211309       -5.5491120892
 H         5.5476217245        0.6632271649       -7.8282734429
 H         5.2047311112        2.1051573528       -6.8148207722
 H         4.0227659561        0.9242114920       -6.7986223450
 H         7.0322011821       -0.4613071632       -6.9029203323
 H         7.6327946195        1.0626760654       -6.2078912673
 H         7.6757707560       -0.4879908646       -5.2213859101
 H         3.7961859629       -3.0092826104       -5.4016973897
 H         2.9999766903       -2.8804066557       -3.9838108842
 H        -1.2309618229       -2.2454645688       -4.8462946928
 H        -1.8861110175       -3.8214459730       -5.6501369451
 H         0.3782519160       -3.5110432811       -7.6566725367
 H        -0.1882664159       -5.2041612495       -7.0216692274
 H         1.3188770496       -4.8316302544       -7.6872296046
 H         2.7421054924       -5.2178453902       -4.3571176913
 H         1.6547968717       -6.0813883552       -5.3125363689
 H         2.9030124222       -5.1934214962       -6.1509417871
 H        -2.2234197220       -2.7227364561       -2.8581300331
 H        -2.4082519372       -4.6212868663       -3.2554559932
 H        -4.7120079645       -0.9740760767       -4.7883190664
 H        -6.4239416251       -1.0287571674       -4.5689403521
 H        -7.3072282374       -3.7074328894       -3.2613625265
 H        -6.2345876529       -4.9985733785       -3.8089415409
 H        -6.4937027604       -3.5136679527       -4.7870931656
 H        -5.7870082589       -3.7809662774       -1.3032081254
 H        -4.8671488310       -5.0212161381       -2.0828086565
 H        -3.9224579169       -3.7292583723       -1.4423102685
 H        -5.4181421258        1.4555412003       -4.0783348520
 H        -6.5006182963        0.7513841835       -2.9136027854
 H        -1.9138770349        3.1988455499       -0.6338135104
 H        -3.3060282295        4.2327176507       -0.4711865384
 H        -2.5200732369        3.4797563783        1.0120928506
 H        -4.3747791552        3.5693890896       -2.2340028057
 H        -5.5559908398        4.0261336032       -1.0318260168
 H        -6.0895162369        3.1820422221       -2.5492360683
 H        -7.0631632255        1.5038537483       -0.7523755718
 H        -6.0728135712        0.3985430909        0.0245094684
 H        -6.2756799335        2.1368592656        0.6255407525
 Na       -2.0790521080        1.1393525929        2.4159364089
