155

 C        -5.6582581749        3.7010738417        5.7235677259
 C        -4.6795632021        2.5818131282        5.3178463855
 C        -5.1728499318        0.9950089885        5.7696969697
 C        -4.0018729688       -0.0300912374        5.7569786698
 C        -3.8520099560       -1.1175246060        6.9346352735
 C        -5.9639768175        0.9291442571        7.0501299734
 C        -6.1460859402        0.6028117265        4.5508263267
 O        -3.8101064402        2.7245880406        4.5053139172
 O        -3.2669691438       -0.2579010544        4.7872803236
 C        -2.3203345509       -1.4125915709        7.0649044495
 C        -1.6012655062       -0.0706569275        7.4272190047
 C        -0.1509153407       -0.1220032458        8.0011371206
 C         0.6161931197       -0.1644473778        6.5807058131
 C         1.1699396919        1.0909884195        5.9104328274
 O        -2.0248120874        1.0290575357        7.2302370969
 O         0.5962225897       -1.2115089190        6.0232894936
 C         0.3007303869        1.1149516336        8.7242823299
 C         0.1357531282       -1.4108566072        8.7453610158
 C         1.6686187957        0.8898245225        4.4816171734
 C         0.5399147399        0.3925330388        3.5828342090
 C         0.8350932304       -0.2835523027        2.2789018948
 C         0.4301852651        0.5947531065        1.1168830492
 C         1.2726549706        0.4397394600       -0.2216758156
 C         2.1744537044       -0.8636908601        2.1299891178
 C        -0.1855640677       -1.4207136097        1.8788091526
 O        -0.6464766093        0.5174021241        3.9056096316
 O        -0.4920854006        1.3720987680        1.1400844962
 C         2.2602191126        1.6286906784       -0.5732532821
 C         3.2766489118        2.0801021595        0.3782227516
 C         4.6711442979        2.5975175306       -0.2241439909
 C         5.3966639328        1.3459714827       -0.8799107260
 C         6.5516763496        1.7910542519       -1.8834773985
 O         3.1246684657        2.1092011174        1.6152930390
 O         5.0308317513        0.2247692819       -0.7183287409
 C         4.2941191561        3.7284118048       -1.3081958855
 C         5.4787071805        3.2102608709        0.9235367163
 C         6.4705561249        0.8290823190       -3.2059458279
 C         5.5219675578        1.3420552920       -4.2100370911
 C         5.5073414925        1.0018055042       -5.7912846891
 C         4.8431802596       -0.4053968114       -5.9788767308
 C         3.6161123115       -0.7100009617       -5.1503152430
 C         4.5501651255        1.9879204507       -6.4054556151
 C         6.9512557980        1.0895272748       -6.4004174572
 O         4.6292541661        2.1077931626       -3.8227176558
 O         5.2949543063       -1.1796605949       -6.7798402749
 C         3.2343030659       -2.1757703882       -5.1879699230
 C         2.2928757096       -2.6863217636       -6.2610955666
 C         1.8082561335       -4.1671359929       -6.0384855072
 C         0.7781375040       -4.2972853678       -4.8794344640
 C        -0.7600531678       -4.2904252631       -5.0399927898
 O         1.9501186240       -2.0155554103       -7.2299477939
 O         1.2481865510       -4.0006829908       -3.7989942215
 C         1.3470850481       -4.6071992982       -7.5507324742
 C         2.9812290480       -5.0187156805       -5.5242385646
 C        -1.5304012272       -4.0907160973       -3.7008682197
 C        -3.0057482133       -3.8356423115       -3.9982438804
 C        -3.9308153632       -3.2206952900       -2.8754214442
 C        -3.3602505464       -1.8578569960       -2.7867085910
 C        -3.9792144088       -0.7217512712       -3.6368389491
 C        -5.4475378130       -3.2432672115       -3.3669223255
 C        -3.5302542608       -4.0110883174       -1.5197131687
 O        -3.3602491355       -3.9757338872       -5.1643712607
 O        -2.4770793955       -1.5500658021       -1.9940105281
 C        -4.8025563352        0.0468097306       -2.6387351376
 C        -4.2638404959        1.4003776226       -2.2898418988
 C        -5.0447011634        2.1291767688       -0.9913776157
 C        -3.8511620619        2.0976426958        0.0753274947
 C        -2.6222375007        2.8387379882       -0.3459249494
 O        -3.3824002379        1.8697723416       -2.9324118500
 O        -3.8475660123        1.3495853820        1.0608759882
 C        -5.3838049882        3.6285886165       -1.3355650409
 C        -6.3315565701        1.3823198337       -0.4269202577
 H        -6.5902635820        3.4513323341        5.2223700578
 H        -5.9424527714        3.8669429423        6.8030622079
 H        -5.3888568223        4.6408074857        5.1987015944
 H        -4.2760281423       -0.8430711619        7.8564626187
 H        -4.4535794638       -2.0096306842        6.7116384921
 H        -5.3622879063        1.3054168912        7.8750687162
 H        -6.3702129744       -0.0640631238        7.2934887037
 H        -6.8163948323        1.5681814760        7.1504679410
 H        -6.4412530628       -0.4138144265        4.4906227866
 H        -7.1223855047        1.0791091214        4.5702251696
 H        -5.7860578568        0.8006957987        3.4946402849
 H        -2.1830512006       -2.0333296595        7.9345048372
 H        -1.9875571557       -1.8729395058        6.1193732170
 H         0.3569321102        1.7434621686        6.0509843680
 H         2.0249267902        1.5189933505        6.5079538124
 H        -0.1314341459        1.9454493624        8.3087663795
 H         1.3633029497        1.2002923199        8.6826305467
 H        -0.0261963263        1.0105447085        9.7572454476
 H         0.0148764787       -2.3412926150        8.1892132233
 H         1.1233547113       -1.4211074652        9.1458361806
 H        -0.5043247885       -1.5856235588        9.5800970738
 H         2.5897857415        0.2978226386        4.6418236913
 H         1.9228592763        1.9364051692        4.1616938863
 H         1.9195108470       -0.4472445247       -0.2953678156
 H         0.6780080281        0.4404014788       -1.1871779047
 H         2.2101650431       -1.3550383728        1.1454131247
 H         2.3519782215       -1.6691528130        2.8828085393
 H         2.9704709768       -0.0988782147        2.2144642299
 H        -0.9936260816       -0.9885208820        1.3304521874
 H         0.4629287577       -2.0482674435        1.2558138809
 H        -0.4309489684       -1.8944787879        2.9095669747
 H         2.6975167818        1.4037517615       -1.4979804383
 H         1.6317414520        2.5012592693       -0.7912463584
 H         6.4613417630        2.8589991041       -2.0363812392
 H         7.4702930729        1.4896623802       -1.3919066129
 H         5.1323455425        4.3960111000       -1.6008288980
 H         3.4042617945        4.3611775952       -0.9891435791
 H         3.9758523237        3.3035224317       -2.2316993409
 H         6.5229057790        3.3509765361        0.5713883841
 H         5.0247600085        4.1805574010        1.2534084776
 H         5.5454218433        2.6085017733        1.8630421419
 H         6.1912000098       -0.2085041569       -2.8190078070
 H         7.4073638707        0.7299604393       -3.7556368513
 H         3.7068336438       -0.4455420456       -4.1012171130
 H         2.7456688506       -0.0697402073       -5.5422599658
 H         4.4169438996        1.9166810660       -7.5584103743
 H         4.8191424094        2.9998200934       -6.3165192744
 H         3.6713782049        1.8559067424       -5.9353166140
 H         7.1975852529        1.8866033056       -7.1070642624
 H         7.6719513552        1.0613086523       -5.5899973912
 H         7.2593681141        0.1393954757       -6.8062177478
 H         4.1301712447       -2.8200296114       -5.2635686119
 H         2.8850903569       -2.3863973372       -4.1516918180
 H        -1.0776502784       -3.4931605163       -5.6733787956
 H        -1.2390970097       -5.1362823722       -5.5467371783
 H         0.5221235638       -3.9674973820       -7.7945084357
 H         1.0966801936       -5.7140634254       -7.4451188451
 H         2.0498278850       -4.3300886817       -8.3574827386
 H         3.2154859816       -4.7152393504       -4.4845764226
 H         2.6650596130       -6.0945414149       -5.4903182017
 H         3.9000012370       -4.9605033984       -6.0970223823
 H        -1.3608942574       -3.1639904212       -3.1245254845
 H        -1.4221096211       -4.8279594547       -3.0001588948
 H        -3.1176523571       -0.0246913208       -3.8546535915
 H        -4.6209521667       -1.0488899074       -4.5044516133
 H        -6.0460457831       -2.5250082326       -2.8330054164
 H        -5.8589851026       -4.2149148350       -3.1623494657
 H        -5.6160361913       -2.9665390067       -4.4560899469
 H        -4.0307272858       -3.6180125506       -0.6266181356
 H        -3.8066405136       -5.0773835696       -1.5701440650
 H        -2.4696502049       -3.9877167862       -1.3931412175
 H        -5.8523060606        0.1071308453       -3.0137598787
 H        -4.8629817336       -0.5039545587       -1.6819415199
 H        -1.9218223471        2.6809767270        0.5132874755
 H        -2.2285758360        2.2896487817       -1.1690314052
 H        -2.7241469250        3.8649986622       -0.6838716391
 H        -4.5930172614        4.1175705015       -1.7031338018
 H        -5.7872109022        3.9641525901       -0.3785164468
 H        -6.1265427740        3.5550365484       -2.0801750346
 H        -6.9006447323        1.0587080617       -1.3235689784
 H        -6.0642535743        0.5363694817        0.2044755931
 H        -6.9596769745        2.0368811749        0.0539927273
 Na       -2.6083050630        1.3280920728        2.9438733007
