155

 C        -4.7153308267        3.6079921371        6.0642302246
 C        -4.6521537860        2.3124820244        5.3285876815
 C        -5.3603359240        0.9612720199        5.7608723960
 C        -4.2939710374       -0.1412082132        5.7708350641
 C        -4.2101617194       -1.1149788959        6.9091701658
 C        -6.2635268873        1.2471918536        6.9397665046
 C        -6.1762895134        0.7908849525        4.4435594466
 O        -3.9290868146        2.2416322103        4.3313645913
 O        -3.7899738664       -0.4195619488        4.7329093446
 C        -2.6112650337       -1.3793958369        7.1081898187
 C        -1.9766996390        0.0195976229        7.4896774773
 C        -0.4973457010        0.0227287740        8.0196655629
 C         0.4861226358       -0.3084260646        6.7964918587
 C         0.9654780323        0.8464023665        5.8170782096
 O        -2.6849269470        1.0359910007        7.6562679933
 O         0.8473825031       -1.4065350616        6.6275722367
 C        -0.1359826982        1.3120881281        8.7634350072
 C        -0.2343344045       -1.1168683077        9.0783099515
 C         1.5206748654        0.3882647961        4.5349348829
 C         0.4975136577        0.3814713213        3.4927738039
 C         0.9103190561       -0.3232144278        2.1148965748
 C         0.5487325031        0.6654116228        0.8196397823
 C         1.3202587616        0.5956190744       -0.4825175412
 C         2.2961848749       -0.9852534781        2.0743185969
 C        -0.2478354082       -1.3779979705        1.6410328539
 O        -0.6428306001        0.7187894647        3.7448143599
 O        -0.2990519900        1.5398279787        1.0526362090
 C         1.9445718185        1.9750558621       -0.8411313279
 C         2.9301747065        2.3037501860        0.2992898196
 C         4.3297130497        2.5884190313       -0.1379547528
 C         4.9307032903        1.7530863908       -1.2647459743
 C         6.2641439725        2.1806938241       -1.9650542181
 O         2.5605340508        2.0944756517        1.4502482520
 O         4.4391353342        0.6619880720       -1.5038958789
 C         4.3079984360        4.0698827604       -0.6386593273
 C         5.3157807467        2.4636958613        1.1103297171
 C         6.5096905427        1.2971353136       -3.2385486430
 C         5.3586773593        1.5364624034       -4.2740836349
 C         5.5356188868        1.1916923149       -5.8758720563
 C         4.9804680505       -0.1762982942       -6.0972796475
 C         3.4958325372       -0.5166190810       -5.6119115862
 C         4.6039057806        2.2775603495       -6.4607978276
 C         6.9589351443        1.2269831554       -6.2405042207
 O         4.4030531463        2.0215614304       -3.7583218041
 O         5.6516305478       -1.0369278772       -6.6878473973
 C         3.4052865933       -2.0153916117       -5.4573187681
 C         2.3550429268       -2.7569149638       -6.3548419539
 C         2.2287513193       -4.4385225527       -6.2065797967
 C         1.0811736326       -4.5366914488       -4.9935503890
 C        -0.3753303766       -4.4327722399       -5.2881428782
 O         1.5921191762       -2.0939111852       -7.0399009832
 O         1.5539761721       -4.6162900769       -3.8428236582
 C         1.5971249005       -4.8316749097       -7.6391599586
 C         3.4095694532       -5.2762946137       -5.8048488584
 C        -1.0989657492       -4.3795162393       -3.9007092360
 C        -2.5521262248       -4.0900847877       -4.0548246166
 C        -3.2977553495       -3.2662412977       -2.8013869847
 C        -2.7502993932       -1.8611440281       -2.9144227127
 C        -3.6074225021       -0.6299700827       -3.3520026865
 C        -4.9183368247       -3.3798518244       -2.9483368898
 C        -2.9039843325       -3.8800156277       -1.3610300673
 O        -3.2197532799       -4.4274653638       -5.0200300087
 O        -1.5708123013       -1.6476584405       -2.7534690401
 C        -4.4429701763        0.0341051052       -2.1549318052
 C        -4.1945910742        1.5047067135       -2.0757899243
 C        -5.0439481312        2.3019219889       -0.8053810216
 C        -4.0710479460        2.1673487719        0.4400505411
 C        -3.0897580283        3.3104536579        0.6966133996
 O        -3.5624155473        2.1655869967       -2.8265356766
 O        -4.0632775356        1.0622213829        0.9856218903
 C        -5.2848974264        3.7684794871       -1.2914872914
 C        -6.3604518983        1.5199973109       -0.6313913429
 H        -5.6639845739        4.1982550922        5.9093716089
 H        -4.6123321825        3.5082098580        7.1215565624
 H        -3.7953310542        4.1933676912        5.7378338635
 H        -4.6998247156       -0.6254113049        7.7841712330
 H        -4.7211999893       -2.0975407890        6.6570530690
 H        -5.5901853180        1.2521157778        7.8213894340
 H        -6.9267912836        0.5314438726        7.3154263559
 H        -6.7577478246        2.2311996448        7.0126952211
 H        -6.7446196993       -0.1030523025        4.3516349465
 H        -6.8290514331        1.5720547312        4.1436691998
 H        -5.5398943839        0.7410447777        3.5901259821
 H        -2.5037581900       -1.9998023487        7.9664581144
 H        -2.1977389483       -1.8046414776        6.1741629814
 H         0.0272882911        1.4387643486        5.6844370494
 H         1.6065097419        1.4566326789        6.3736416893
 H        -0.4990688698        2.1770278373        8.2138205889
 H         0.9379813564        1.3098611760        8.7067912157
 H        -0.5063430127        1.3109690972        9.7094376383
 H        -0.2596295993       -2.0782156159        8.6435801971
 H         0.6340827566       -1.0557634714        9.6982698709
 H        -1.0353788390       -1.0774189182        9.8015999309
 H         1.8677246210       -0.6703634997        4.7041411623
 H         2.4137729513        0.9487983095        4.2004995057
 H         2.1691422413       -0.0917775100       -0.5006377777
 H         0.6253921519        0.4111995852       -1.2743848103
 H         2.3038002349       -1.7236707602        1.3253627151
 H         2.4181947464       -1.5528978475        3.0793021854
 H         3.0562324762       -0.2616768809        1.9955701862
 H        -0.9921730209       -0.6270170391        1.5068088574
 H         0.0586241639       -1.8406322667        0.6701781178
 H        -0.3519415627       -2.1609828613        2.4037651774
 H         2.4015073827        1.9378809336       -1.8095035588
 H         1.1270300448        2.6381668866       -0.8892249871
 H         6.1448801776        3.2638675087       -2.1790946906
 H         7.1005068601        2.0266164433       -1.2479025459
 H         5.3003719516        4.5469093256       -0.3705290715
 H         3.5760617056        4.5606681856       -0.0265694932
 H         3.9787160108        4.2525054698       -1.6823898335
 H         6.3527903736        2.5993671106        0.9462838173
 H         5.0379311683        3.2678342138        1.8134795756
 H         5.0668850343        1.4659369224        1.6288882008
 H         6.5803873461        0.2719324267       -2.9690917489
 H         7.5034038436        1.5639647340       -3.6490076803
 H         3.3894348378       -0.0812523898       -4.5854603398
 H         2.8795356216       -0.0747712521       -6.3813513123
 H         4.0499043968        1.8404298256       -7.3999140945
 H         5.1723288088        3.2093356501       -6.7350450330
 H         3.7648076276        2.6427754756       -5.8541497816
 H         7.4716723887        2.1424717717       -6.3277847789
 H         7.5654529447        0.6735327577       -5.5504208057
 H         7.0504663690        0.8062179123       -7.2517009287
 H         4.4478710555       -2.4843187502       -5.5600288058
 H         3.0907149002       -2.3585559222       -4.3954191192
 H        -0.3704548873       -3.5877399439       -5.9367300099
 H        -0.5608892690       -5.3237180321       -5.8357252354
 H         0.6741524366       -4.2542316132       -7.6812862827
 H         1.4560147074       -5.9161046220       -7.7842395473
 H         2.2176623123       -4.4372039004       -8.3934054926
 H         3.5689393222       -5.0450150781       -4.6982506850
 H         3.1846555203       -6.3144148547       -5.7905251769
 H         4.3527564005       -5.0901266463       -6.3593950545
 H        -0.5409447874       -3.6648621314       -3.3817362005
 H        -1.0682295938       -5.4530621421       -3.4976755380
 H        -2.8535214344        0.0355696556       -3.8096445602
 H        -4.2827145199       -0.8767995836       -4.1385905582
 H        -5.3542018149       -2.5762138638       -2.3013444356
 H        -5.3400390169       -4.3016429885       -2.5679137738
 H        -5.2598174315       -3.1417266228       -3.9140366244
 H        -3.8217490168       -3.9809082345       -0.7576205786
 H        -2.5721553249       -4.8840832294       -1.4297490674
 H        -2.1994712345       -3.3318466436       -0.7363278914
 H        -5.4833859908       -0.2209868646       -2.1988284181
 H        -4.1962602776       -0.4208318118       -1.1770383856
 H        -2.3604495168        3.1147827326        1.5431117311
 H        -2.5524804796        3.4209272818       -0.1719907111
 H        -3.6468551612        4.1750939213        0.8170794170
 H        -4.2693657879        4.1190966723       -1.3308006083
 H        -5.8879642319        4.3130400617       -0.5519728964
 H        -5.8198581586        3.7918070830       -2.2026626870
 H        -6.7921662498        1.4207401583       -1.6302998289
 H        -6.3522067618        0.5447406397       -0.1993321521
 H        -7.0123674228        2.1769643218       -0.1078714889
 Na       -2.6656689290        0.7959508136        2.8411783850
