155

 C        -4.0162570030        3.2421549344        6.2118906890
 C        -4.3042588103        2.1750846049        5.1735126567
 C        -5.2788121265        0.9393256544        5.3489705624
 C        -4.2879013391       -0.2803719865        5.4115913594
 C        -4.1813732663       -1.0886949012        6.7446513866
 C        -5.9732188434        1.2348939712        6.6688301391
 C        -6.1676079434        0.9232968879        4.1239765259
 O        -3.7950342266        2.3362677888        4.0700073769
 O        -3.6931888432       -0.5558893831        4.4279904981
 C        -2.7054284805       -1.2831852582        7.2045976685
 C        -1.9963650513        0.0359664306        7.5033137024
 C        -0.4983833180        0.1375976701        8.1016649721
 C         0.2926413139       -0.4683712509        6.8583063803
 C         1.0478355992        0.6543670358        5.9315319777
 O        -2.5836509037        1.0893326993        7.3772400444
 O         0.2873743947       -1.6338896185        6.5752134730
 C        -0.2070109004        1.6747026530        8.5812085262
 C        -0.3763586204       -0.8237894053        9.2355025478
 C         1.4714944334        0.2694297070        4.5102262633
 C         0.2619371540        0.1316755850        3.6507550943
 C         0.5652209868       -0.5256666152        2.1786592298
 C         0.0150067961        0.5872867453        1.1521170595
 C         0.6133932175        0.7639966569       -0.2445253300
 C         2.0578194038       -0.8584077564        1.9203959571
 C        -0.3939706918       -1.7326097622        1.8087941006
 O        -0.8687092198        0.4452008233        3.8862513678
 O        -0.9452722334        1.3618663044        1.3078794317
 C         1.6344777470        1.9286998290       -0.6516653221
 C         2.7908644500        2.3014467545        0.3997629184
 C         4.2881627665        2.6942113359       -0.0992398966
 C         4.8356684769        1.7311070442       -1.1831045931
 C         6.0524909747        2.1465493297       -2.0016767986
 O         2.5066419539        2.1335511114        1.5809725956
 O         4.4278331626        0.6034014089       -1.2772389233
 C         4.2996171418        4.2092584628       -0.4938326522
 C         5.1719477851        2.4108781048        1.1445373521
 C         6.2521460540        1.4833082522       -3.3851008243
 C         5.1710539840        1.8459084450       -4.4048594732
 C         5.3722039870        1.3555024787       -5.9027537129
 C         5.2005446144       -0.1268446870       -6.0052023027
 C         3.6749901346       -0.5698528431       -5.9234502556
 C         4.3302083383        2.1800917925       -6.8381483454
 C         6.9849007804        1.6268821641       -6.3084462137
 O         4.1657746970        2.4257766674       -4.1010286289
 O         6.0814870632       -0.9099208621       -6.1868414218
 C         3.6520143005       -2.0593301775       -5.6941439696
 C         2.3877899099       -2.7722261429       -6.2679222605
 C         2.3089314325       -4.3447399424       -6.2120902309
 C         1.3583002719       -4.7695066022       -5.0894037535
 C        -0.1256358332       -4.5109087855       -5.3062344376
 O         1.4627704545       -2.1950249609       -6.8029208286
 O         1.7543231886       -5.4668033774       -4.1571403355
 C         1.8023170193       -4.7228823660       -7.5794622707
 C         3.6781238510       -5.0825311561       -5.9786647221
 C        -0.8004466866       -4.0947830950       -3.9237323870
 C        -2.3713633493       -4.0325511236       -3.9723994376
 C        -3.0365689935       -3.2879382984       -2.7858657473
 C        -2.4877833461       -1.7467631313       -2.8257548707
 C        -3.4031244243       -0.5581611673       -3.1241884689
 C        -4.5587647596       -3.2723371281       -2.7432729945
 C        -2.4643498432       -3.9165534380       -1.5751194883
 O        -3.0109379110       -4.5936076294       -4.8429188230
 O        -1.3231536468       -1.5403055955       -2.5796813368
 C        -3.6535038095        0.1342780764       -1.7365439228
 C        -4.0145099680        1.6260665806       -1.9235069389
 C        -5.0654308250        2.2519758866       -0.8510156405
 C        -4.2167158412        2.1728570796        0.5244743883
 C        -3.5354335873        3.3116129059        1.1525161941
 O        -3.5242189651        2.3211664062       -2.7577863874
 O        -4.2925308800        1.0440954741        1.0225955226
 C        -5.3824941219        3.6755433167       -1.3972436119
 C        -6.3724385276        1.5003102403       -0.7455799802
 H        -4.8635897694        3.8703272329        6.4902219080
 H        -3.6618432256        2.8299471488        7.1526454908
 H        -3.1587975447        3.8438365550        5.8453054631
 H        -4.8165144997       -0.7320863786        7.5232193909
 H        -4.5158829581       -2.0498029975        6.2900198639
 H        -5.3709751433        1.0982242351        7.5663906948
 H        -6.8704122449        0.7892216455        6.9587575799
 H        -6.3269803090        2.2533390158        6.5987027348
 H        -6.8596229849        0.1085370250        4.0759597777
 H        -6.8663522540        1.7706591298        4.1159262496
 H        -5.7327107223        0.9293447065        3.0796281241
 H        -2.6532867108       -1.8268955397        8.1111726452
 H        -2.1473773109       -1.8446801625        6.4150107844
 H         0.3060918862        1.4731166481        5.8424031007
 H         1.8520121797        1.0572746373        6.4807572307
 H        -0.2950384948        2.3540973272        7.7921445563
 H         0.8231618407        1.5758067234        8.8892226563
 H        -0.7808809224        1.9111742700        9.4501926980
 H        -0.5589724269       -1.8476378638        8.8757988804
 H         0.5984828822       -0.8217527360        9.7677972454
 H        -1.1322931507       -0.6139353375       10.0135223286
 H         1.8332121803       -0.7819845250        4.3225403119
 H         2.3163356711        0.9003612384        4.1394916854
 H         1.1793040989       -0.1309815865       -0.5914398277
 H        -0.1664123020        0.9123357314       -1.0045456270
 H         1.9704575816       -1.3747977733        1.0139114776
 H         2.3707185733       -1.5478086354        2.7911417140
 H         2.7100577428       -0.0166655580        1.7769313672
 H        -1.3516553097       -1.3123912404        2.0490879291
 H        -0.2352014088       -1.8231451583        0.7100784283
 H        -0.0745684583       -2.6280208476        2.4398465639
 H         2.0161067927        1.6751579935       -1.5981467702
 H         1.0557820202        2.8224011163       -0.8028892369
 H         6.3056354138        3.2195949062       -2.0596887580
 H         6.7891254060        1.7761190715       -1.2638635409
 H         5.3941395579        4.4895200098       -0.6212271372
 H         4.0984663525        4.8534966405        0.3103807820
 H         3.8292828654        4.3454764629       -1.4375866918
 H         6.1322891943        2.8804401645        1.0952723377
 H         4.6225777919        2.7703566847        2.0507018486
 H         5.4250672962        1.2948683771        1.1845533472
 H         6.3325878136        0.3989409756       -3.3519259814
 H         7.2872697289        1.8407158019       -3.7132782421
 H         3.1401129879       -0.0317961393       -5.0943992314
 H         3.2132491859       -0.3860423873       -6.8905070602
 H         4.5930402182        2.2299776336       -7.9915135972
 H         4.4207698433        3.2252451365       -6.4307022258
 H         3.3450181639        1.8487064526       -6.7229210485
 H         7.3713637880        2.6030759836       -6.3520854077
 H         7.6489327197        1.2125939565       -5.5615961675
 H         7.2949980784        1.2347442705       -7.2989251629
 H         4.4488049154       -2.6936705203       -6.1326584786
 H         3.6614675579       -2.2533600593       -4.5633960237
 H        -0.1877277370       -3.7862576010       -6.0907834060
 H        -0.5513309668       -5.4566570652       -5.5786492480
 H         0.9822856610       -4.0207175707       -7.5973375738
 H         1.3075851024       -5.7580719087       -7.7155248362
 H         2.6035418036       -4.6752163421       -8.3193341753
 H         4.1387407241       -5.0060633374       -4.9346436182
 H         3.5466597605       -6.1080424590       -6.1837221487
 H         4.3852188792       -4.7525578505       -6.7407161815
 H        -0.3505923400       -3.2003701003       -3.6271674605
 H        -0.6024372441       -4.9420296059       -3.2458999642
 H        -2.9539443128        0.2523013624       -3.8120272077
 H        -4.3166004797       -0.7503789984       -3.6863806174
 H        -4.8272165244       -2.6433081679       -1.8433869128
 H        -5.0407707209       -4.2361234749       -2.6197144554
 H        -4.9189710011       -2.8503417487       -3.6905926244
 H        -2.5503668138       -3.2175041037       -0.6935545735
 H        -2.9975120278       -4.8068813701       -1.3167775591
 H        -1.4117000222       -4.1553446604       -1.6326217657
 H        -4.4383321320       -0.3448430585       -1.1496825344
 H        -2.7572424850        0.1292274072       -1.0374974002
 H        -2.4379574971        3.3872563183        0.9776206421
 H        -3.9323617567        4.1665289750        0.6807191786
 H        -3.8397083794        3.2773582601        2.1944786273
 H        -4.5117668531        4.2136049630       -1.5138425768
 H        -6.0864372444        4.2124024261       -0.7131196124
 H        -5.8932117917        3.5050607796       -2.3063718878
 H        -6.8233854292        1.6504818817       -1.7661290249
 H        -6.3535709545        0.4320996705       -0.5158757479
 H        -6.9956186197        1.9021346842       -0.0460330409
 Na       -2.9219920682        0.8222138994        2.6715464337
