155

 C        -4.2410727797        3.4348394238        6.5663887866
 C        -4.4840803290        2.5007537374        5.3580529077
 C        -5.4852904394        1.2874725374        5.4469900690
 C        -4.6135219042       -0.0712784515        5.3470939872
 C        -4.2847914199       -0.9076261036        6.6279457713
 C        -6.5396837378        1.3479287065        6.5695718193
 C        -6.3398075411        1.3515296803        4.1100897149
 O        -3.8834225511        2.6739479833        4.3069509682
 O        -4.1580510970       -0.4410573305        4.3343536725
 C        -2.8058320453       -1.1254801334        6.8649944457
 C        -1.9793746849        0.0986929206        7.3520978230
 C        -0.4500697808       -0.0379440616        7.6734846886
 C         0.2748792050       -0.6304337276        6.3604423686
 C         1.4718281341        0.0308187594        5.5992833723
 O        -2.5065635582        1.1554421676        7.5081040011
 O        -0.2797434221       -1.6201223601        5.8654313008
 C         0.1462219155        1.3248553815        8.0426329581
 C        -0.3539857633       -1.0673775689        8.8765740732
 C         1.4261993307       -0.4780958639        4.1899798269
 C         0.1747424260       -0.2583630833        3.3856413161
 C        -0.1112975868       -1.1133156894        2.0771918777
 C        -0.3741758951       -0.0682003411        0.8944487832
 C         0.5923678034        0.5879211644       -0.1003729681
 C         1.1817510159       -2.0241326819        1.7077767504
 C        -1.3312857507       -2.0725127903        2.2948268138
 O        -0.7576944263        0.4303021833        3.7249679526
 O        -1.4738919830        0.5348359571        0.9969924971
 C         0.8420661678        2.1092396305        0.3932912001
 C         2.3734516486        2.2705154964        1.0241279669
 C         3.5550805400        2.8294935594        0.1758143060
 C         4.0370730854        1.9474383003       -1.1362705614
 C         5.2674338124        2.5929600339       -1.8792928424
 O         2.4878163186        2.0200790144        2.2141930344
 O         3.5771090750        0.8170494128       -1.2980700622
 C         3.0503993263        4.2028863940       -0.3411681025
 C         4.6903227338        3.0302297566        1.1776892319
 C         5.5648576917        1.8947566592       -3.2369323998
 C         4.7500795514        2.2763176356       -4.4355900766
 C         5.1057313569        1.6584291105       -5.8435485426
 C         5.0853950163        0.1485116102       -5.6652819098
 C         3.9696510202       -0.6345853688       -6.5452054271
 C         3.9735584119        2.1689071046       -6.9068707204
 C         6.4975965886        2.0337333564       -6.3506708831
 O         3.6520754102        2.8597655210       -4.3348770592
 O         5.9748297715       -0.4757846329       -5.0574224159
 C         4.3034501629       -2.1151477957       -6.7771388711
 C         3.1773000232       -2.9321824472       -6.1035006187
 C         2.8610850103       -4.3681118262       -6.5247512350
 C         1.8199870026       -4.8696140593       -5.3499682646
 C         0.3633417794       -4.3908375406       -5.4816959997
 O         2.4667012521       -2.4043066099       -5.2915477087
 O         2.1449559710       -5.5920849741       -4.3953851979
 C         2.1223402503       -4.3689288253       -7.9316581329
 C         4.1064531754       -5.2686049453       -6.5545407849
 C        -0.1439934565       -4.0113260235       -4.1246894629
 C        -1.5230187047       -3.3940603382       -3.8890421186
 C        -2.0213059660       -3.2301582795       -2.3870861141
 C        -1.4419063858       -1.8244799843       -1.9373467689
 C        -2.0502853620       -0.5737078420       -2.6800463742
 C        -3.5512851261       -3.2150492351       -2.4159149367
 C        -1.4386016545       -4.2343583729       -1.4071547242
 O        -2.1031395139       -2.7766461282       -4.7736818228
 O        -0.6286273905       -1.7056225354       -1.0079088365
 C        -3.1289711773       -0.0576007065       -1.5875453503
 C        -3.8080357759        1.2142615327       -2.0849187987
 C        -4.9950898876        1.9005833293       -1.2242335836
 C        -4.4062421116        2.2136742100        0.1810945831
 C        -3.6191883808        3.4985098006        0.3114545404
 O        -3.4653029734        1.7617130003       -3.0550141434
 O        -4.2203021482        1.2591230212        0.9508549094
 C        -5.5608672784        3.1086917731       -1.9575952631
 C        -5.9908465698        0.7194693583       -1.1619978762
 H        -4.9960426603        3.3479596333        7.3618707540
 H        -3.2022439691        3.1906754220        6.9600450962
 H        -4.2502579014        4.4900815564        6.2219225332
 H        -4.5823093386       -0.3124973245        7.4778375951
 H        -4.8387010387       -1.8522784699        6.7174527697
 H        -6.1779070183        1.9423569785        7.3947928654
 H        -6.6522837224        0.3027245920        7.0202309910
 H        -7.4777867606        1.6391799727        6.1246146436
 H        -7.0152693266        0.5213282489        3.9657375203
 H        -6.8801707768        2.2885167137        3.9816125479
 H        -5.7173966210        1.2984510727        3.2854336706
 H        -2.6664148628       -1.8354219879        7.6542782133
 H        -2.1759649872       -1.6801595821        6.0745062594
 H         1.3609593849        1.1083498232        5.7321339785
 H         2.4774131723       -0.2882993496        5.9834281630
 H         0.3069911629        1.9662258066        7.1363497673
 H         1.0942196219        1.2520367067        8.5080006017
 H        -0.5274594371        1.9018745237        8.6555374995
 H        -0.6818203908       -2.0182145434        8.4320955519
 H         0.6541913936       -1.1369957977        9.2083832824
 H        -0.9970008428       -0.7850025435        9.6699450123
 H         1.5602996482       -1.5303906431        4.1407165029
 H         2.2158641328       -0.0949904541        3.5754198827
 H         1.4468094623        0.0496571442       -0.4492466930
 H        -0.0733218346        0.8719016465       -0.9085004226
 H         1.1832940663       -2.2880933345        0.6130245639
 H         1.3427269644       -2.8423496589        2.3091103358
 H         2.0441180531       -1.3850050903        1.8590301044
 H        -2.2269936117       -1.4242505013        2.3379145741
 H        -1.2289891662       -2.7677499823        1.5100520691
 H        -1.0616908666       -2.6315315863        3.1374095759
 H         0.6730337430        2.8639624925       -0.3722211024
 H         0.0912864390        2.2693719133        1.2518624136
 H         5.0777848535        3.6480467064       -2.0737962304
 H         6.1430401814        2.6407019841       -1.2201029335
 H         3.8520380385        4.6378169649       -0.8990646502
 H         2.9445533052        4.8861143636        0.5551751550
 H         2.0949879895        4.2392608497       -0.8620490807
 H         5.5014948214        3.7527249656        0.8038079748
 H         4.2679449628        3.6419238067        2.0051388759
 H         5.0900020614        2.1151161158        1.5435350222
 H         5.5232889571        0.8296246911       -3.0866918384
 H         6.6105691846        2.1315988253       -3.4336530583
 H         3.0914700532       -0.5551204441       -5.8726951484
 H         3.7260509057       -0.0544403959       -7.4282535393
 H         4.3489830146        1.7501703592       -7.8685169500
 H         3.7108074494        3.1409199652       -6.8468685780
 H         3.1039414539        1.6593051071       -6.7052443513
 H         6.6893248006        3.1125169126       -6.2654190097
 H         7.2937054614        1.5538903662       -5.8293267346
 H         6.7002417435        1.7915520601       -7.3601773402
 H         4.2934378429       -2.3554367643       -7.7995622749
 H         5.2735084921       -2.2925025831       -6.2631901772
 H         0.3973010460       -3.4770243463       -6.1450083847
 H        -0.3457167533       -5.1376004534       -6.0424296842
 H         1.1865440406       -3.8745817255       -8.0966461841
 H         2.1507429785       -5.3413374846       -8.2485147159
 H         2.8203918162       -3.9195476985       -8.6220297879
 H         4.4114552829       -5.3210998182       -5.5337160592
 H         4.0168152395       -6.3543569411       -6.9274167810
 H         4.8588020907       -4.7369725578       -7.1646295870
 H         0.6130761207       -3.3547217303       -3.5846907372
 H        -0.0180473004       -4.8980799767       -3.5788035366
 H        -1.4106971858        0.2657411593       -2.8996572369
 H        -2.6116719532       -0.9111522635       -3.5585515258
 H        -4.0315804194       -3.5249546903       -1.5048113331
 H        -3.8556244398       -3.8933083292       -3.2097603442
 H        -3.9293219068       -2.1904099405       -2.7092555066
 H        -0.9074042436       -5.0006138585       -2.0100932041
 H        -0.6357743262       -3.8150752336       -0.7889241914
 H        -2.1816623988       -4.7149726626       -0.8104796028
 H        -3.8493311963       -0.8021187659       -1.4430537108
 H        -2.6821247606        0.1933678810       -0.6290604945
 H        -2.7704068832        3.3699762304       -0.3796588209
 H        -4.2699479116        4.3250887690       -0.0070649062
 H        -3.1955086230        3.7080960616        1.2512345940
 H        -6.3960238387        2.7618277111       -2.6848872446
 H        -4.8757668232        3.4872849504       -2.6590887717
 H        -5.8794323662        3.9647045831       -1.3621340266
 H        -6.1379319281        0.3229659793       -2.1004587529
 H        -5.5870779404       -0.1024241866       -0.5963513383
 H        -6.9651114126        0.9871883650       -0.6897217355
 Na       -2.9714986397        0.9601167007        2.9947306269
