155

 C        -4.9083202011        4.1990829869        5.9803854204
 C        -4.8301657764        3.0511159003        5.0381794145
 C        -5.6390315639        1.7747184819        5.2314388851
 C        -4.5233934961        0.6560975268        5.5882389149
 C        -4.4732836055        0.0719350326        7.0338501689
 C        -6.5339825732        1.8742589024        6.4921409985
 C        -6.3483902117        1.4313843718        3.8575684914
 O        -4.1172936282        2.9955124572        3.9957121457
 O        -3.6713040336        0.2886170449        4.8119982218
 C        -3.1847791344       -0.6683476474        7.3150010542
 C        -1.9642837179        0.1639837956        7.8125843425
 C        -0.6986207085       -0.7379272109        8.1733611250
 C        -0.0080621290       -0.7751847331        6.7223852826
 C         0.9441511075        0.3714667662        6.2335658408
 O        -2.0311908861        1.3940404899        7.8988688213
 O        -0.2508659208       -1.7512947927        6.0373180376
 C         0.1214243073       -0.0531742444        9.2117813238
 C        -1.0757615627       -2.2505233818        8.6753438505
 C         1.3669417266        0.0688857319        4.7270076401
 C         0.1672257049        0.1566396762        3.7573371449
 C         0.0592492246       -0.6481933963        2.3940200637
 C        -0.1266629356        0.3190821079        1.1581066231
 C         0.6703592206        0.0962666870       -0.0780980710
 C         1.2606580312       -1.6816926068        2.2633368006
 C        -1.2033090142       -1.6003923819        2.4686917605
 O        -0.7598398085        0.9167587723        4.1190128224
 O        -0.9817610254        1.1652639392        1.1570321483
 C         1.1220894111        1.4347707482       -0.5756194833
 C         2.0499119855        1.9668793431        0.4167563725
 C         3.1879802898        3.0732699528        0.0698182684
 C         4.1627972248        2.1895721263       -0.7576240660
 C         5.4135186207        2.7963685463       -1.4145602737
 O         1.9190164926        1.7150088116        1.6164015301
 O         3.9364664530        1.0569692051       -1.0747014178
 C         2.5494403478        4.2214882229       -0.7795772503
 C         3.7740753663        3.4737604245        1.4464868313
 C         5.7234216995        2.2933536516       -2.7871280535
 C         4.5383308357        2.4241266833       -3.7800972256
 C         4.8461229930        2.6008370556       -5.3314526245
 C         5.3494806412        1.1546457630       -5.5838424262
 C         4.2514481007        0.1345253156       -6.4000791379
 C         3.5189390431        2.9665873772       -6.0494379139
 C         5.9621813176        3.5514539070       -5.8271023036
 O         3.4390499603        2.3504082388       -3.3587741092
 O         6.4249569926        0.7515775971       -5.2049198872
 C         4.7307031634       -1.3186688091       -6.4611324309
 C         3.6949261355       -2.2958078851       -6.1033623585
 C         3.6498694844       -3.8303791212       -6.5135920964
 C         2.6566446942       -4.6711914171       -5.6512098692
 C         1.1134585778       -4.4184076307       -5.7676153332
 O         2.8511690768       -1.9393647972       -5.3133242761
 O         3.0786382693       -5.5986080977       -5.0442165086
 C         3.1764726656       -3.6591727658       -8.0393737801
 C         5.1089417440       -4.4007386856       -6.4708935058
 C         0.5645707720       -4.4109119715       -4.2735335673
 C        -0.9636564565       -3.9646216399       -4.2982508421
 C        -2.0124051154       -4.5003157896       -3.2453878103
 C        -2.6064576096       -3.2516967006       -2.4580922401
 C        -3.1959055972       -2.0853418628       -3.2193719055
 C        -3.2127527692       -5.1232743695       -4.0601575763
 C        -1.3110197251       -5.5191187021       -2.3194979276
 O        -1.3214846415       -3.2445967439       -5.1944401844
 O        -2.6815709828       -3.2781641055       -1.2458579933
 C        -4.1682117649       -1.2290151084       -2.3011016087
 C        -4.0733126139        0.2277383821       -2.3906531751
 C        -5.1388694388        1.2912670598       -1.4054644505
 C        -4.2822824191        1.4438465525       -0.0692051999
 C        -3.5697386115        2.7732965121        0.1477999192
 O        -3.1892387981        0.8311333594       -2.9028946307
 O        -4.3293774119        0.6030329971        0.7960423335
 C        -5.3384675692        2.5630238951       -2.3206937105
 C        -6.4285842166        0.5179142609       -1.1383563596
 H        -4.0809295915        4.1692394186        6.6797021150
 H        -4.7430261652        5.0830313117        5.4155736411
 H        -5.8429038913        4.2565435863        6.5377979573
 H        -4.5152434513        0.8438568682        7.7750074737
 H        -5.3682596577       -0.6004246430        7.2819725253
 H        -5.9857935720        2.3589606707        7.2586012120
 H        -6.9882283326        0.9165772429        6.8490618320
 H        -7.4417760014        2.3491453545        6.2368351725
 H        -6.6479766007        0.3837267721        3.8500752238
 H        -7.1764603914        2.0994054425        3.5900054573
 H        -5.5563563158        1.5723772779        3.1728783478
 H        -3.2620368196       -1.4189392953        8.1099717653
 H        -2.9208482312       -1.1395130357        6.3152364024
 H         0.2887802718        1.2836506394        6.3939680724
 H         1.7580307661        0.5940087002        6.8824131277
 H         0.5453262072        0.9875658387        9.1851483156
 H         0.9990189744       -0.6426801477        9.4405745641
 H        -0.5194725870       -0.1724868922       10.0455584962
 H        -1.6828530811       -2.7880419552        7.9375079134
 H        -0.0986466056       -2.6507437646        8.8431090757
 H        -1.5525543482       -2.1602810564        9.6346633769
 H         1.6133631933       -1.0062800142        4.8126396952
 H         2.2281854852        0.6100175966        4.3964632703
 H         1.4658312649       -0.6018565743        0.0745393731
 H        -0.0098796352       -0.4713505905       -0.6260710578
 H         1.5677406312       -2.0771159902        1.2758688786
 H         1.1850540234       -2.5154529316        2.9318448559
 H         2.1983484924       -1.2887406611        2.6283850661
 H        -0.8669131626       -2.5825700912        2.8894496585
 H        -1.9677983620       -1.1929657590        3.1883684718
 H        -1.4899635405       -1.5485879293        1.4597109547
 H         1.6046578294        1.2920312085       -1.4996079638
 H         0.1631475574        2.0190443305       -0.7028313588
 H         5.3690535052        3.8980710144       -1.2613464573
 H         6.2343659893        2.4651655940       -0.7375100309
 H         1.6735008067        3.8263244355       -1.1632717799
 H         3.0710863267        4.6545347294       -1.6769386865
 H         2.2361655256        4.9986791193       -0.0982269104
 H         4.4311340596        4.3271671600        1.3062101829
 H         2.9238672343        3.7738336017        2.0153935269
 H         4.3479143914        2.7087684433        1.9014720736
 H         5.9377968155        1.2572904747       -2.6788455621
 H         6.6806905394        2.6883165709       -3.1727054894
 H         3.4198115257        0.1253730863       -5.7016118044
 H         3.8427277210        0.4086497554       -7.3332095950
 H         3.8142794598        3.3152737408       -6.9743345421
 H         2.9461158868        3.7903715988       -5.5801915251
 H         2.7270707929        2.2219523540       -6.0925149808
 H         6.7931363599        3.5429268330       -5.0854511532
 H         6.3553507392        3.2555963294       -6.7933886961
 H         5.4183205295        4.4760837513       -5.9565640946
 H         5.4100574904       -1.5782329618       -7.2845957531
 H         5.5786973334       -1.3879486504       -5.6847883732
 H         0.8639979149       -3.4590199119       -6.2861849278
 H         0.7526430956       -5.3080892703       -6.3239293097
 H         2.1308560845       -3.1928946266       -8.1759269448
 H         3.0656201225       -4.6871559808       -8.4783210678
 H         4.0283405347       -3.2039836846       -8.6446186219
 H         5.4083178938       -4.2422194541       -5.5018646181
 H         5.2615780317       -5.5024560454       -6.5898890117
 H         5.6826006812       -3.8725625177       -7.1846329892
 H         1.2516570055       -3.7932664603       -3.8003238421
 H         0.8175376883       -5.4127833050       -3.8663802657
 H        -2.2901438098       -1.4380446403       -3.4009435522
 H        -3.6674266555       -2.3432520969       -4.1282743412
 H        -3.0094743796       -6.0046550209       -4.5707677934
 H        -3.6029190488       -4.4308973406       -4.7919495367
 H        -4.0330236252       -5.2463619632       -3.3384877136
 H        -0.2787541580       -5.1532508087       -2.0238994345
 H        -1.9029103037       -5.6344889455       -1.4339413119
 H        -1.2263432452       -6.5027423209       -2.7581518380
 H        -5.2619923883       -1.5916480765       -2.3257121584
 H        -3.7824027897       -1.5269713452       -1.2501290552
 H        -3.7739994813        3.4507552012       -0.7183442430
 H        -3.9263358654        3.3085668203        0.9747897649
 H        -2.5244162558        2.6094157065        0.3003669440
 H        -5.1097088103        2.2071381452       -3.3236996023
 H        -4.6607017156        3.3754548214       -2.1258952896
 H        -6.3779229308        2.8586789523       -2.2297374510
 H        -6.7286403337       -0.0239573234       -2.0258814553
 H        -6.3479230542       -0.2189589241       -0.3067594078
 H        -7.2374892525        1.2929540441       -0.8210752810
 Na       -2.7789959103        1.3934373885        2.8337442398
