155

 C        -4.7445252930        4.2329727186        5.9565925881
 C        -4.7618561940        3.1545949522        4.8625630043
 C        -5.5395859238        1.8620025605        5.1175233230
 C        -4.3799083552        0.7876881010        5.5007268354
 C        -4.2600897800        0.4036663575        6.9732523573
 C        -6.5990279473        1.8683900020        6.2746802348
 C        -6.3746034645        1.3266289653        3.8903042918
 O        -4.0382281636        3.2190665234        3.9148304427
 O        -3.6717553207        0.2898504055        4.6438047448
 C        -3.2064436681       -0.6892401594        7.3085618285
 C        -2.0080141387        0.0548478363        7.8406930541
 C        -0.6676438699       -0.8106035890        8.1574743271
 C        -0.0069525893       -0.8090610065        6.7029397829
 C         0.7683065040        0.4947948147        6.2196726404
 O        -2.0286305019        1.2358295652        8.0526302635
 O        -0.4280809936       -1.6480092751        5.9022885548
 C         0.1204819107        0.0178336292        9.2512549069
 C        -1.1216866143       -2.2153130765        8.5527191967
 C         1.2149185868        0.2625054375        4.7817327005
 C         0.0499167503        0.2700580427        3.7296478166
 C         0.1299134453       -0.7129932193        2.4376452336
 C        -0.1296057756        0.1034420322        1.2420115280
 C         0.5612994844        0.0564831837       -0.1525583982
 C         1.4752333517       -1.4360338110        2.4104823039
 C        -1.1421223422       -1.7370257944        2.5496650800
 O        -0.8911324857        0.9980018072        3.8749420427
 O        -1.1716029430        0.8162333062        1.2117746078
 C         1.0575074097        1.5399544933       -0.3291573432
 C         2.0264974180        1.9459766577        0.7243446357
 C         3.1246314463        2.9760808955        0.2637203088
 C         4.0598467416        2.1562278931       -0.7215745345
 C         5.2589147310        2.8797871259       -1.2444702740
 O         1.9280694045        1.3593349968        1.7962013704
 O         3.7756356954        1.0309729150       -1.0667209730
 C         2.4774009186        4.1520943066       -0.5336315398
 C         3.8508452150        3.6172503846        1.4597117609
 C         5.7369508680        2.5479052400       -2.7239737391
 C         4.6838436942        2.5105622089       -3.7875807812
 C         4.9601618348        2.6799286285       -5.3216693738
 C         5.4737062253        1.2062858859       -5.7853793753
 C         4.4137596279        0.2480188263       -6.3664994544
 C         3.5688278748        2.9463803015       -5.9544803351
 C         5.8939564758        3.9276746242       -5.6336088441
 O         3.5016486797        2.2365041640       -3.4350021993
 O         6.6333197021        0.9616093949       -5.4487596940
 C         4.7629890017       -1.2969853396       -6.4324925812
 C         3.6106887946       -2.2494160781       -5.9711314537
 C         3.6636460655       -3.7247884248       -6.5339074729
 C         2.6903295714       -4.5541637690       -5.6310857760
 C         1.2017229163       -4.1240256036       -5.6109818644
 O         2.8316258463       -1.7783854816       -5.1513213960
 O         3.1488600351       -5.5915451365       -5.1859391433
 C         3.1866591722       -3.7665522172       -8.0132017301
 C         5.1077431139       -4.2644740708       -6.4918220198
 C         0.4524395088       -4.2857339313       -4.3170896147
 C        -1.0332556973       -3.9489760234       -4.3474875345
 C        -2.1741922025       -4.6272611177       -3.3096389505
 C        -2.6193535166       -3.3941907488       -2.4351400919
 C        -3.1444656500       -2.0820445027       -3.1747876095
 C        -3.3280404864       -5.2930161991       -4.0312184434
 C        -1.6075968144       -5.6700400247       -2.3640045806
 O        -1.5230821456       -3.1718073210       -5.1393230003
 O        -2.5454643333       -3.4244703225       -1.2251189253
 C        -4.3058151120       -1.3582377852       -2.4887244102
 C        -4.0009482219        0.1743726009       -2.3010279478
 C        -4.9718562617        0.9982428514       -1.3870438934
 C        -4.1719091102        1.3881867345       -0.2034740049
 C        -3.2906446927        2.6972702423       -0.1142873507
 O        -2.9778083505        0.7265905412       -2.7167108452
 O        -4.1612602972        0.5887505404        0.7585456155
 C        -5.4841156857        2.2375175872       -2.3198500468
 C        -6.2511503447        0.1565442673       -0.9697127758
 H        -4.5267099090        3.7899697064        6.9262906386
 H        -3.9896585343        5.0197686252        5.7387669808
 H        -5.7281607651        4.6208807054        6.1186266914
 H        -4.0729739519        1.3094567330        7.5952668387
 H        -5.1992720529        0.0932922035        7.3366678549
 H        -6.1635669685        1.9414440059        7.3083693333
 H        -7.1576235479        0.9566235196        6.2080447081
 H        -7.4088598357        2.6692918216        6.1930205924
 H        -6.9862342180        0.4652306083        4.2231465252
 H        -7.0566280584        2.1672619073        3.6437892477
 H        -5.7535885442        1.1283026701        2.9800331497
 H        -3.4950348344       -1.5156799985        8.0097761519
 H        -2.9068965793       -1.1491374339        6.3615436450
 H         0.2807134612        1.4263663009        6.3714282443
 H         1.7183813829        0.6028000686        6.8317078266
 H         0.5376682043        0.8908865967        8.8241937541
 H         0.9683733691       -0.5244579838        9.5889534704
 H        -0.4594471635        0.2464045338       10.1423506203
 H        -1.5109001906       -2.7326955957        7.6574607313
 H        -0.2598231810       -2.6911297248        9.0775958905
 H        -1.9567792192       -2.0198116954        9.2647643204
 H         1.9076182631       -0.5570863771        4.7912000939
 H         1.8156276462        1.1423339199        4.4669348203
 H         1.3786910985       -0.7098724561       -0.2522163326
 H        -0.2624277713       -0.2375782898       -0.9074849311
 H         1.3833678704       -2.2572197543        1.7071055746
 H         1.8258643053       -1.9635279392        3.2838678027
 H         2.3449621759       -0.8750818977        2.0331245711
 H        -0.8056174091       -2.5676780720        3.1398764054
 H        -1.8406064464       -1.2029119936        3.1358469490
 H        -1.4849951991       -1.9088148369        1.5140256909
 H         1.3231469448        1.5153487127       -1.4302861325
 H         0.1950793121        2.1592317874       -0.1810330098
 H         5.1332615400        3.9438584555       -1.1495763199
 H         6.0334385836        2.6910759528       -0.5041860575
 H         1.7314025570        3.9377295324       -1.3799512770
 H         3.3372481404        4.5848206767       -0.9557372274
 H         2.1068541583        4.9174271603        0.1547567325
 H         4.3053446582        4.5399743908        1.0938815251
 H         3.1365272534        3.7360293764        2.3067316349
 H         4.7325006581        3.0476847806        1.7784520756
 H         6.3702879884        1.6572602789       -2.9814925956
 H         6.4151164341        3.3463952564       -2.9698245053
 H         3.4876326978        0.4074434796       -5.7602565688
 H         4.1725959128        0.6969758536       -7.3924902628
 H         3.5385795754        2.8271260723       -7.1256202815
 H         3.2481613159        3.9845230601       -5.9909544115
 H         2.8840423790        2.3086814168       -5.4645466901
 H         6.5927115292        4.0733145110       -4.8375193855
 H         6.5099154807        3.5571949604       -6.4798523804
 H         5.2643571232        4.7848193736       -5.9467349191
 H         5.2994309852       -1.6255188816       -7.3319965671
 H         5.5693945482       -1.3441500932       -5.7609617025
 H         1.1785154848       -3.0602731205       -5.9085491294
 H         0.7472741435       -4.7416240751       -6.4272924668
 H         2.1750530528       -3.4244440526       -8.1072520988
 H         3.1756680057       -4.7538934329       -8.4700615968
 H         3.8462649081       -3.0695461053       -8.5637250023
 H         5.4043296817       -4.5222717958       -5.4514773271
 H         5.1537947496       -5.1658277240       -7.0419633278
 H         5.7963071655       -3.6434778418       -7.0740042106
 H         1.0739880587       -3.7641524909       -3.5269197608
 H         0.6007931383       -5.3281196970       -4.0419969659
 H        -2.2615410006       -1.4793042832       -3.3435866547
 H        -3.6255636832       -2.4302782077       -4.1370857883
 H        -2.9508473305       -5.8125259345       -4.9663153901
 H        -4.1003556041       -4.6058693331       -4.3525561978
 H        -3.8060560307       -5.9893461492       -3.3441249843
 H        -0.8600753191       -5.2181620522       -1.7667995377
 H        -2.4470298184       -6.0522378697       -1.7720358613
 H        -1.2318827846       -6.5655180088       -2.8681025720
 H        -5.1675378990       -1.5390330617       -3.0595606323
 H        -4.4211921278       -1.8522019579       -1.5568162217
 H        -3.9779940498        3.5165614186       -0.1090795619
 H        -2.6997206831        2.7104192419        0.8580717061
 H        -2.5576884843        2.7822660751       -0.8886151953
 H        -5.3921857685        1.8965268469       -3.4088907786
 H        -4.7635530369        3.0513355711       -2.2664536159
 H        -6.4755319620        2.4792183952       -2.0384220680
 H        -6.7722505522       -0.0667996097       -1.9055053676
 H        -5.9381499723       -0.8086468945       -0.5931380683
 H        -6.8860515338        0.6079747684       -0.2966309450
 Na       -2.9913863954        1.2182647851        2.6188122123
