155

 C        -4.4225732966        4.7105826420        4.7636868362
 C        -4.3494821749        3.2338507230        4.1747973959
 C        -5.2985362744        2.2375162951        4.9476435291
 C        -4.5999534573        0.7888929503        5.3061919935
 C        -4.3241337017        0.5340334025        6.7631211678
 C        -5.8291986982        2.8994237487        6.1768720024
 C        -6.5395315945        1.9175908806        4.0394095638
 O        -3.7043167782        2.9093842419        3.2159938445
 O        -4.3629714673       -0.0686912353        4.4246057577
 C        -3.2273004720       -0.4984830472        7.1010281119
 C        -2.0930181255        0.2278959555        7.9162117615
 C        -0.7774072089       -0.5116681905        8.2136373420
 C        -0.2383224379       -0.6895367603        6.7702818252
 C         0.5168379545        0.5871296482        6.2009911432
 O        -2.1860739818        1.4038259379        8.1974459524
 O        -0.3927777114       -1.6525527319        6.0980461306
 C         0.2257684972        0.3407871613        9.1319829675
 C        -0.9592170776       -1.9309512887        8.8819241111
 C         1.0942513735        0.4320266591        4.7696322061
 C        -0.0954164610        0.0932417584        3.8156409798
 C        -0.0329240568       -0.9527483966        2.5589029298
 C        -0.1303464199       -0.2399732636        1.2559043453
 C         0.9473065565       -0.4544834195        0.1929982742
 C         1.2682055673       -1.7555649191        2.6746431319
 C        -1.3820178107       -1.8631856318        2.8113938982
 O        -1.1760304959        0.5219615173        4.0769521304
 O        -0.9457947081        0.6739160067        1.0078284281
 C         1.4271286550        0.9479123393       -0.3697495126
 C         2.1039064700        1.6401026845        0.7994384916
 C         3.1158036768        2.8571028601        0.5414451637
 C         4.3717125649        2.2086833613       -0.3291636998
 C         5.3876697766        3.0713731034       -1.1293116733
 O         1.6679769968        1.5501684117        1.9702594041
 O         4.3729115535        0.9850618726       -0.5439518507
 C         2.3129412507        3.8365623822       -0.4155533785
 C         3.5699682024        3.5992918356        1.8345816580
 C         5.3992828621        2.6490011347       -2.5867899091
 C         4.5733911639        3.5063166285       -3.6145855828
 C         5.0933152695        3.4292723170       -5.0455744218
 C         5.4650864310        1.8669100524       -5.4375519890
 C         4.3198450566        0.9157368447       -5.3316039668
 C         4.0389359732        4.1362164840       -5.9900781297
 C         6.4493465531        4.2270779858       -5.0909205442
 O         3.5670749537        4.0237147418       -3.2190562752
 O         6.5826194121        1.5927881090       -5.8115963496
 C         4.5460466229       -0.4934864829       -5.8749729896
 C         3.6081230988       -1.5950363857       -5.3407284131
 C         3.5807826641       -2.9652712344       -6.1383168698
 C         2.6135453622       -3.7975971414       -5.2760156064
 C         1.1187081266       -3.7312057381       -5.6609423056
 O         3.0457620624       -1.5253518100       -4.2559713856
 O         3.0273858105       -4.4199126724       -4.2823148937
 C         2.9494592605       -2.6625559375       -7.4609639822
 C         5.0165218647       -3.4455570468       -6.3253632107
 C         0.2826083903       -4.5707366341       -4.6127991474
 C        -1.2286240259       -4.6957380019       -5.0681951739
 C        -2.2364601890       -5.3773941090       -3.9485685774
 C        -2.5011405023       -4.2257793726       -2.9249614668
 C        -3.1781370475       -2.8929776729       -3.4362156777
 C        -3.5561766797       -5.7866367731       -4.6095049332
 C        -1.5701003731       -6.5762750247       -3.2375936760
 O        -1.6601094309       -4.2589418676       -6.1070720097
 O        -2.1319408423       -4.2330925502       -1.7502308030
 C        -4.1780643481       -2.3806994995       -2.4125735431
 C        -3.9681147563       -0.8491645177       -2.2302603411
 C        -5.0475512773        0.0818127611       -1.5447019975
 C        -4.2612338103        0.9029852520       -0.5476596588
 C        -3.3605960796        1.9950169139       -0.9686327814
 O        -2.9598144984       -0.2651592893       -2.5633590512
 O        -4.3495804971        0.7018342820        0.6252036130
 C        -5.5807520850        0.9846927487       -2.6814005586
 C        -6.2259176521       -0.8240543657       -0.9200635264
 H        -4.3928203723        4.7651392730        5.8729131785
 H        -3.6865627138        5.3854910556        4.3092708151
 H        -5.3753396913        5.0885054389        4.3060228549
 H        -3.9922741972        1.5168600867        7.2715285061
 H        -5.2528410712        0.2075658249        7.2229389311
 H        -5.2782616689        3.4831121510        6.8728591294
 H        -6.3429207454        2.0751044332        6.7860957478
 H        -6.7340681407        3.4641444230        6.0092910144
 H        -7.2166623977        1.3757836380        4.6820844174
 H        -7.0184196126        2.8737770824        3.7655308020
 H        -6.2514444100        1.2678099340        3.2089306127
 H        -3.8053913316       -1.1877141389        7.8177228265
 H        -2.8828656812       -1.1044322191        6.2994683223
 H        -0.1693309049        1.4201630331        6.1962409153
 H         1.4413818276        0.7263655968        6.8256123906
 H        -0.1641420876        1.4071364814        9.3307309558
 H         1.2944223779        0.4663894889        8.7385622826
 H         0.2026923985       -0.2069129953       10.0876158197
 H        -1.6956251616       -2.4502280965        8.2278836998
 H        -0.0789261565       -2.5332526244        9.0191798923
 H        -1.4627978823       -1.7178312818        9.8189132309
 H         1.9262198761       -0.2612003764        4.8121368104
 H         1.4342339629        1.3777159161        4.3732425657
 H         1.7252242261       -1.1629809676        0.2936571333
 H         0.4730875487       -0.8564110846       -0.6869616960
 H         1.3542726029       -2.4884326184        1.8011804886
 H         1.2338697739       -2.3077926403        3.5979165751
 H         2.1558173110       -1.1294761578        2.7121729331
 H        -2.0338015331       -1.7597744082        1.9026098778
 H        -0.9912350863       -2.9057516936        2.6999218987
 H        -1.9650186970       -1.6662428107        3.6754644331
 H         2.0776680194        0.7405518404       -1.2345161819
 H         0.5703578074        1.5205955923       -0.7696353536
 H         5.0788956586        4.1507502577       -0.9628827069
 H         6.4272766194        2.8723272871       -0.8228071090
 H         2.1845704222        3.4279332145       -1.3846211942
 H         2.9774526490        4.7617778517       -0.5308179451
 H         1.4108448471        4.2071204270        0.1084935375
 H         4.2111941761        4.4960525303        1.6503989247
 H         2.7721100766        4.1190244564        2.3894895131
 H         4.1673169642        2.9295507340        2.4402543434
 H         4.9069384382        1.6514451165       -2.5748786607
 H         6.4091480838        2.5050300373       -2.8955256299
 H         4.1878910544        0.8445000594       -4.2728980905
 H         3.4346348138        1.3986362119       -5.7409330151
 H         4.6237455592        4.5183459761       -6.7409713857
 H         3.4306068044        4.8945726825       -5.4788190035
 H         3.2247051782        3.4579552981       -6.4599765717
 H         7.2708536583        3.5894258274       -4.7159395570
 H         6.5795407688        4.6396676305       -6.0574650795
 H         6.1664627176        5.0390252397       -4.4891070421
 H         4.4497435363       -0.4561331280       -7.0283520612
 H         5.5657262090       -0.6679107039       -5.5501337353
 H         0.7668039186       -2.6569879220       -5.6769762981
 H         1.0209536762       -4.0723232328       -6.7420053526
 H         2.1336794948       -2.0518010126       -7.1962570453
 H         2.7506099251       -3.4932505625       -8.1101479627
 H         3.6264475888       -2.1037763779       -8.0462146921
 H         5.4483288223       -3.7466357563       -5.3851292791
 H         5.1587448796       -4.3883887905       -6.9905157249
 H         5.5973745325       -2.5749874570       -6.6875442289
 H         0.4043462307       -4.0841641450       -3.6939406830
 H         0.6421099934       -5.5682552617       -4.5817149326
 H        -2.4516089176       -2.1101467263       -3.6221664650
 H        -3.5713920163       -3.0492004508       -4.4298611080
 H        -3.3745202189       -6.7171969226       -5.1299679433
 H        -3.7593024848       -5.0529010097       -5.3919882374
 H        -4.3985054779       -5.8155370386       -3.8330506931
 H        -0.4717981519       -6.3590857317       -3.2933973670
 H        -1.9046176256       -6.5880036813       -2.2254332644
 H        -1.7910446588       -7.5418519946       -3.6701732792
 H        -5.2305533571       -2.5420993388       -2.7133549616
 H        -4.1072342541       -2.8206986332       -1.3725436855
 H        -2.3410891986        1.5153574631       -1.1827876272
 H        -3.5577909904        2.3311531085       -1.9464105055
 H        -3.0812357086        2.7399346149       -0.1810113437
 H        -5.6250637330        1.9662788360       -2.3086046799
 H        -6.6121537801        0.7758527431       -3.0390732741
 H        -4.9696936955        1.0784586691       -3.6138963095
 H        -6.7082828787       -1.3233848697       -1.7205942009
 H        -5.9473245753       -1.5514595661       -0.1809989767
 H        -6.8758307207       -0.0849767568       -0.3902520167
 Na       -2.9723551664        0.8677395632        2.5298349372
