155

 C        -4.4095909054        4.8504932026        4.4944580194
 C        -4.5026020295        3.3999387508        4.0011849376
 C        -5.5790260028        2.4256891360        4.6722283994
 C        -4.6355116465        1.2949906828        5.1797770402
 C        -3.9619836016        1.5825609268        6.5492705687
 C        -6.3009184109        3.0890111734        5.9243018083
 C        -6.6103680292        2.0752743199        3.5183526259
 O        -3.7180193641        3.0404154131        3.1241043013
 O        -4.4285562066        0.2973420444        4.5063636576
 C        -2.9051749148        0.3614314083        6.7632728728
 C        -2.0428198525        0.6538730125        7.9635779532
 C        -0.8027892096       -0.4489334593        8.1710854362
 C        -0.1198235539       -0.7652562850        6.7983190526
 C         0.7493418527        0.3686435153        6.0975078899
 O        -2.0048644516        1.7088557627        8.5602843363
 O        -0.2622384632       -1.8570770321        6.2412913201
 C         0.3580232732        0.0048486880        9.2175651816
 C        -1.4109496620       -1.6984114412        8.7472898988
 C         1.1179813042        0.0874884752        4.6674835588
 C        -0.1089817889        0.0030688403        3.7105540972
 C        -0.2371865005       -1.2455195407        2.6278089658
 C        -0.1624374093       -0.3639732575        1.2382363043
 C         0.8285581427       -0.7461334255        0.1815561121
 C         0.9849432047       -2.1980119651        2.6268150063
 C        -1.6074995408       -2.0977775140        2.6669672411
 O        -1.0436335584        0.7227175860        3.8952780876
 O        -1.1401219770        0.3710910699        0.9992654397
 C         1.7157217168        0.5721422233       -0.1603087204
 C         2.2364616609        1.4844851999        0.9246896500
 C         2.9869470635        2.8328098165        0.4399785463
 C         4.2196835368        2.4057693316       -0.4553756254
 C         5.4207346100        3.3776802518       -0.6449053988
 O         2.2999047312        1.1811895824        2.0501401824
 O         4.3216083328        1.3310754652       -1.0152009882
 C         2.0575426377        3.7114577305       -0.4360008916
 C         3.3092794835        3.6658239592        1.6645159166
 C         5.8497616488        3.6035356447       -2.1202582893
 C         4.8588723705        4.0021989326       -3.1318538265
 C         5.3817141700        3.8444237487       -4.6746268974
 C         5.4251250957        2.3068614946       -4.9029177112
 C         4.2000352900        1.3492978465       -4.7206160402
 C         4.2344403867        4.4600224301       -5.5882706734
 C         6.7783913211        4.4251866686       -4.8321729171
 O         3.7593981410        4.4758399000       -2.9637181176
 O         6.5170986751        1.7607905975       -5.1076389269
 C         4.5327329492       -0.0671085959       -5.1438475497
 C         3.1847453016       -0.8826552743       -5.3104817906
 C         3.4053007255       -2.2893475126       -5.8255894234
 C         2.5966758647       -3.4558550713       -4.9455061919
 C         1.0363497096       -3.3929501409       -5.0265373061
 O         2.0629913731       -0.5761042255       -4.9668651968
 O         3.1406429809       -4.3198890459       -4.3513378142
 C         2.8805674988       -2.2390052079       -7.3461982863
 C         4.8876014370       -2.7146581870       -5.8445026630
 C         0.4150609449       -4.8391635609       -4.7661183534
 C        -1.0542538611       -5.0210526578       -5.2657067259
 C        -2.0697651736       -5.8182208308       -4.2934271671
 C        -2.6482004659       -4.9783462354       -3.1044946839
 C        -3.0477182031       -3.3977262841       -3.4691318141
 C        -3.3203373295       -6.2950063898       -5.0973982508
 C        -1.2181987592       -7.0118682072       -3.7410746315
 O        -1.4621676893       -4.7221213056       -6.3725393731
 O        -2.9562563964       -5.5006507286       -2.0836365896
 C        -3.6714057116       -2.6497343726       -2.2541619407
 C        -3.8877269577       -1.2044500633       -2.5114178815
 C        -5.0037280106       -0.4648038671       -1.5721105383
 C        -4.1777869207        0.1639137111       -0.4240737385
 C        -3.4016547021        1.4230205396       -0.8305224340
 O        -3.4054589010       -0.5337026038       -3.3985028241
 O        -4.2545891834       -0.2780676415        0.6758485016
 C        -5.6891972040        0.5727495008       -2.4900471183
 C        -6.0734399609       -1.5231281773       -0.9958996701
 H        -4.5939305386        4.9906123361        5.5255564742
 H        -3.4491442406        5.1297927310        4.1655176273
 H        -5.1518956805        5.3824591953        3.9021400762
 H        -3.5639522652        2.6038728884        6.3588475206
 H        -4.5404706483        1.5850124600        7.4034530193
 H        -5.7766886593        3.1250166707        6.8825055704
 H        -7.2290772985        2.5366130918        6.0955756582
 H        -6.5878518894        4.0725196738        5.5963855434
 H        -7.2820941663        1.3779918425        3.9547535899
 H        -7.1569524297        2.9483398543        3.3130685795
 H        -6.1049780362        1.7012266284        2.5989987133
 H        -3.5551803625       -0.5315129415        6.7310395326
 H        -2.2690182410        0.2975624363        5.9307091301
 H         0.2627074443        1.3383430598        6.1746183989
 H         1.6524594624        0.5903886984        6.6766959369
 H         0.7704006205        0.9258291150        8.9914858021
 H         1.0905725825       -0.7798676196        9.2871387487
 H        -0.1289410079        0.0795854174       10.1566932257
 H        -2.1126166733       -2.1453777968        8.0107234796
 H        -0.6502508641       -2.5063740576        8.9264949689
 H        -1.9684955938       -1.6201272816        9.7002197875
 H         1.7163620745       -0.8861667092        4.6303490240
 H         1.8188194873        0.8812722969        4.3154351230
 H         1.5049427527       -1.4916062494        0.5423571346
 H         0.5144264349       -0.9873410747       -0.8096059396
 H         0.7867058933       -2.8279011269        1.7701113199
 H         0.8786979411       -2.8619611643        3.5419217023
 H         1.9172102216       -1.7369251272        2.4461985298
 H        -1.3473585967       -3.0839093263        2.9142092761
 H        -2.3970412757       -1.7728223395        3.3532751239
 H        -2.1169816942       -2.1602272098        1.6632424210
 H         2.6491770530        0.2466466257       -0.6022950385
 H         1.2616522021        1.1822914114       -0.9651434544
 H         5.3081073456        4.3138659960       -0.0858878265
 H         6.2455616298        2.9250514409       -0.1708610939
 H         1.7548991146        3.1527132539       -1.2835758386
 H         2.5965643623        4.6094787997       -0.7912569460
 H         1.1425301783        4.0021615709        0.0530328004
 H         3.9221351527        4.5166285334        1.5412615018
 H         2.4249420809        3.8736781151        2.1667746981
 H         3.8138445908        3.0556283482        2.4740931494
 H         6.3435090068        2.6664033362       -2.4683371317
 H         6.6414427598        4.3656977584       -2.1431916752
 H         3.9007614927        1.4163584409       -3.6690496140
 H         3.3998256942        1.8131001416       -5.3229867155
 H         3.7074098886        3.6800571440       -6.2889337545
 H         4.8494825351        5.1841562598       -6.1840926909
 H         3.4571615226        4.9259991906       -5.0377793482
 H         7.6026128786        3.7596738007       -4.3742657051
 H         7.0025933819        4.5105503235       -5.9000336003
 H         6.7595612972        5.3673804502       -4.2662270061
 H         5.0894635113       -0.1033593410       -6.1216504763
 H         5.3579219293       -0.6183328236       -4.4992466655
 H         0.7484657539       -2.7930632353       -4.1871187759
 H         0.7332587733       -3.1091408307       -5.9911644711
 H         1.7878561093       -2.2396655629       -7.4600204124
 H         3.0569385549       -3.2757848740       -7.7612546831
 H         3.2236290502       -1.3668669388       -7.8749972160
 H         5.3597812054       -2.6200605458       -4.8582152133
 H         5.0997888464       -3.6719222262       -6.2819433226
 H         5.4284900384       -1.9812646571       -6.4269942663
 H         0.6276769646       -5.0298231340       -3.6831033667
 H         1.0007932850       -5.7088368458       -5.2755818833
 H        -2.1356944904       -2.9398183049       -3.9138302122
 H        -3.8019177908       -3.4962146988       -4.2378353063
 H        -3.0936154153       -6.8290653978       -5.9487649451
 H        -4.0554989909       -5.4935341060       -5.2268579400
 H        -3.7082758346       -6.9935887851       -4.4008691650
 H        -0.2216616557       -6.7886621936       -3.2881978854
 H        -1.7773642029       -7.4749613606       -2.9379568439
 H        -1.0368073022       -7.7511504595       -4.5063745533
 H        -4.5780460367       -3.1058736519       -1.9747447596
 H        -2.9823700385       -2.7612812626       -1.4200045562
 H        -2.8511279565        1.2376271170       -1.6959125475
 H        -4.0416182588        2.3233852892       -1.0441999692
 H        -2.7138907391        1.7813144662       -0.0544956724
 H        -5.5404798904        1.6010729348       -2.2737201835
 H        -6.7617232513        0.4684680668       -2.4816420146
 H        -5.3021319652        0.5403098212       -3.5384179695
 H        -6.5454627882       -2.1601776879       -1.7864856007
 H        -5.5419085254       -2.0180531298       -0.2482891855
 H        -6.9012551222       -1.0170813526       -0.5159252350
 Na       -2.8971585064        0.7372690665        2.3726734608
