155

 C        -4.4427539930        5.0419934598        3.3349481878
 C        -4.1969426492        3.5032409996        3.2880974032
 C        -5.2678062877        2.5129504818        4.0762142200
 C        -4.3998237510        1.3451908132        4.7527149084
 C        -3.7655171586        1.5716856504        6.1527207562
 C        -6.1381558940        3.3270613330        5.0970243809
 C        -6.1885187297        1.8261332107        3.0002257781
 O        -3.2344703023        3.0240138784        2.6964643337
 O        -3.8720129609        0.5668011641        4.0383409771
 C        -3.1539059902        0.4425636521        6.9152144876
 C        -1.9112027689        0.8686257727        7.8660486124
 C        -0.8838763709       -0.3645922296        8.2159373949
 C        -0.1328226672       -0.6204341233        6.8002605272
 C         0.6826380048        0.3512478075        6.0361211073
 O        -1.7573518056        2.0332427920        8.1631923914
 O        -0.3841420369       -1.7218351976        6.2834227961
 C         0.2947759338        0.0566875768        9.2266711083
 C        -1.5190643306       -1.6408670288        8.7838848210
 C         0.9547293418       -0.1804775208        4.5890589411
 C        -0.3264973293       -0.5735016758        3.8566211039
 C        -0.2647303785       -1.5263358897        2.5150926566
 C        -0.1678147748       -0.6721292620        1.2402117028
 C         1.0159593525       -0.9098583646        0.3066734755
 C         0.9920748944       -2.5595036820        2.7157102295
 C        -1.5788033109       -2.3563273852        2.4351773428
 O        -1.3086470198        0.0224240913        4.0937686563
 O        -0.9156712988        0.3245575846        1.0779514320
 C         1.5517130281        0.4451640270       -0.1996563367
 C         2.3648871404        1.1213457101        0.9601185223
 C         2.7937856154        2.6004245620        0.6931024029
 C         3.9310446745        2.7190870173       -0.4473825918
 C         4.8665780566        3.9098363212       -0.3943465491
 O         2.5213901160        0.5932059836        2.0246646202
 O         3.8816638824        1.8984880786       -1.3368007029
 C         1.5071999965        3.4030392041        0.0219367033
 C         3.2111812569        3.2513879961        2.0620157437
 C         5.6440625304        3.9366803350       -1.7200994829
 C         4.6983963562        4.2590015823       -2.8978251629
 C         5.4184212817        3.8588986736       -4.3968710559
 C         5.4637459944        2.2816264671       -4.3816239006
 C         4.3056968393        1.4731745364       -5.0490849479
 C         4.5535153620        4.5497311515       -5.3963931913
 C         6.8183087832        4.4454568415       -4.3368329267
 O         3.7214215895        4.9496549163       -2.8088937418
 O         6.3981090874        1.7564616601       -3.8458407143
 C         3.8419733253        0.3298229271       -4.1714688250
 C         2.8885034175       -0.5913459643       -4.9720971559
 C         3.3396770491       -1.8008801638       -5.7570232650
 C         2.5139602486       -2.9109843124       -4.9282119786
 C         1.2781811999       -3.4900525551       -5.4764522508
 O         1.6761802100       -0.3018062495       -4.9511790722
 O         2.9847193872       -3.2283572581       -3.8435819883
 C         2.9971014104       -1.6262132196       -7.3304255492
 C         4.8229537800       -2.1170807333       -5.6816637946
 C         0.5002992662       -4.3149824975       -4.5143973313
 C        -0.9080681746       -4.7448060273       -5.2155268365
 C        -1.7892405210       -5.8592618835       -4.5248908425
 C        -2.6015884395       -5.3010370560       -3.3143138998
 C        -2.8942391871       -3.8091362032       -3.3506772347
 C        -2.9797780042       -6.3714516844       -5.5291887319
 C        -0.8878821438       -7.0542168168       -4.0756727652
 O        -1.2369771854       -4.0616296440       -6.1601246544
 O        -2.9177871203       -6.0057113445       -2.3284861832
 C        -3.9493221242       -3.3437040904       -2.3853106949
 C        -4.0662044650       -1.8016200020       -2.3777248694
 C        -5.0883262400       -1.1120463883       -1.2142273621
 C        -4.1925626717        0.0026961456       -0.5613488240
 C        -3.6502145048        1.1651424922       -1.4305387499
 O        -3.6085541249       -1.1449499958       -3.2686456701
 O        -3.9508225603       -0.0839849006        0.6300703050
 C        -6.2983462073       -0.5280617390       -2.0051843441
 C        -5.5494974546       -2.1060117501       -0.2145050995
 H        -4.4755892393        5.4138030655        4.3763525711
 H        -3.5390437696        5.5162529034        2.8361375807
 H        -5.3704356138        5.1294967951        2.7448639489
 H        -2.8615511202        2.2605297216        5.9509174282
 H        -4.3536593920        2.1896745065        6.7919715833
 H        -5.4503825580        4.0781546973        5.5879836542
 H        -6.6308845465        2.6733724926        5.7841278494
 H        -6.8495195403        3.8742029760        4.4300552175
 H        -6.8961863261        1.0991129423        3.5437976792
 H        -6.7556233373        2.6482554147        2.5331506013
 H        -5.5933022481        1.2852102362        2.2778599986
 H        -3.9847756079       -0.0288334136        7.5732195689
 H        -2.8900473382       -0.4416782902        6.3269032949
 H         0.3123404957        1.3715261532        5.9497985651
 H         1.6122755302        0.4355018283        6.5793842385
 H         0.8529072360        1.0004294788        8.8775371189
 H         0.9472780313       -0.7955256687        9.4347342435
 H        -0.2284803674        0.4050369599       10.1968328441
 H        -2.1595189270       -2.1678111661        8.1556035300
 H        -0.7834693553       -2.3931606768        9.0401156125
 H        -2.0788380966       -1.5108946120        9.7019817878
 H         1.7274467375       -0.9562296124        4.6017072581
 H         1.2878821679        0.6951807359        4.0632352523
 H         1.8537772594       -1.3631937672        0.9265681527
 H         0.8889061061       -1.4608739924       -0.6703927004
 H         0.7974694810       -3.3303154517        2.0156443808
 H         0.8728657329       -3.0017586816        3.7184456567
 H         2.0043677154       -2.0817064356        2.5616545077
 H        -2.3998015494       -1.8299733502        3.0192330690
 H        -2.0308297771       -2.4344344973        1.4280992350
 H        -1.5745520613       -3.3453860846        2.9407274215
 H         2.1342069916        0.2787727281       -1.0976391654
 H         0.6795431178        1.0703702449       -0.5210481412
 H         4.2664342256        4.8757549217       -0.2573696309
 H         5.4350560604        3.8388465860        0.5331328755
 H         1.1775820364        2.7750655031       -0.8787574892
 H         1.5752954913        4.4149350007       -0.3051854629
 H         0.6406576923        3.3534783057        0.7170080696
 H         3.7851954216        4.1842927870        2.0436433862
 H         2.3147471142        3.6130852923        2.5902290338
 H         3.7384710604        2.5094799706        2.6549721537
 H         6.0701957106        2.9518152279       -1.9009275015
 H         6.5156763881        4.5977071849       -1.7549804806
 H         3.5223364331        2.1749270272       -5.3018017010
 H         4.6389130701        1.0326901960       -5.9993191056
 H         4.6275384716        5.5872593198       -5.3401502476
 H         3.5307425024        4.3847127926       -5.2167891687
 H         4.8265355545        4.1498164348       -6.3695181231
 H         7.5166759424        3.6844287586       -4.0098365187
 H         7.0402330046        4.6807640351       -5.3819290451
 H         6.9818264253        5.4168421766       -3.8531276761
 H         4.7119718956       -0.3015102877       -3.9258586151
 H         3.3226154129        0.7572662542       -3.2657992389
 H         0.6163357380       -2.7963830487       -5.9892160238
 H         1.6478463654       -4.0371728339       -6.3075668002
 H         2.0395161499       -2.0786714438       -7.4914227643
 H         3.7890663867       -1.9043037765       -7.9480041636
 H         2.8343775095       -0.5381469448       -7.6212526119
 H         5.1600279261       -1.9342733059       -4.6227018026
 H         5.1857653838       -3.0616895743       -5.9424187949
 H         5.3478735077       -1.4199842188       -6.3540562440
 H         0.3135563108       -3.7660202628       -3.6246772680
 H         1.0979365599       -5.2104605394       -4.2714280916
 H        -1.9295344150       -3.2107522952       -3.1558657939
 H        -3.2831289807       -3.5104718806       -4.3435814436
 H        -2.5868473429       -6.4862261872       -6.5895716167
 H        -3.8333650343       -5.6330911678       -5.6158119752
 H        -3.3743316668       -7.2833065612       -5.1087707732
 H        -1.2488526737       -7.4357611532       -3.1587829441
 H        -0.9347118457       -7.9645839286       -4.6840382643
 H         0.2061536638       -6.8562087023       -3.9905303436
 H        -4.9132627314       -3.7670794189       -2.6742537057
 H        -3.7094410201       -3.6031163340       -1.3154909285
 H        -3.1538312387        0.6983073883       -2.2797341919
 H        -4.3778719558        1.9855776590       -1.7688035331
 H        -2.9615654323        1.7069154918       -0.8498820676
 H        -7.3115550047       -0.5138879145       -1.4233447570
 H        -6.3787861422       -0.9721272398       -2.9619212377
 H        -6.0165758985        0.4214022426       -2.3158005868
 H        -6.1871076400       -2.8999019268       -0.5989863068
 H        -4.5654220783       -2.6615322570        0.0803809217
 H        -5.9845250555       -1.6286176423        0.6515622382
 Na       -2.6824780148        1.0329729897        2.0841335188
