155

 C        -2.5691053150        4.3688669233        2.6655801916
 C        -3.2906687726        3.0027940428        2.4012064128
 C        -4.6712197798        2.7612402817        3.0806038776
 C        -4.0857815613        1.8458139946        4.3398087979
 C        -4.7469374439        1.8890730681        5.7798212991
 C        -5.4194344720        4.0051140014        3.4446532156
 C        -5.6916743417        1.8945744111        2.2010909656
 O        -2.7663108644        2.0759425241        1.7706598200
 O        -3.1099322220        1.1244190662        4.2565852057
 C        -3.9188024131        1.1569163667        6.8451066124
 C        -2.3776506349        1.4404620845        6.7652355145
 C        -1.4512573731        0.4354481115        7.5273754412
 C        -0.8580579413       -0.5898564290        6.4756537040
 C         0.3522099400       -0.1284769574        5.4634370917
 O        -1.9122348469        2.3841900081        6.1969590338
 O        -1.1462323285       -1.7304108187        6.5667633968
 C        -0.1976038733        1.2235555021        8.0860876981
 C        -2.3057637693       -0.1816210247        8.6093690293
 C         0.8910833846       -1.2971393659        4.5923327153
 C        -0.0291374011       -1.6332990831        3.4795884470
 C         0.3850519933       -2.2442815191        2.1925034949
 C         0.2640675084       -1.2066173262        0.9882113672
 C         1.4422207719       -1.0896982492       -0.0808379572
 C         1.7557635700       -2.9316483003        2.2193979318
 C        -0.7593196001       -3.1664134642        1.6512769720
 O        -1.2080380602       -1.3087119098        3.6713786425
 O        -0.7075633617       -0.5281633521        0.8418921068
 C         1.6740618594        0.4949430946       -0.2480743142
 C         1.9812850164        1.1494093264        1.1598639187
 C         2.2260771908        2.7282289131        1.2447871601
 C         3.5189634604        3.0718998116        0.3613451347
 C         3.7566474085        4.4699969575       -0.1128138346
 O         1.9839899401        0.5525055244        2.2336780964
 O         4.2438383987        2.1853326211        0.0081334068
 C         1.1329045761        3.5675505600        0.5342673392
 C         2.4763022378        3.1525072754        2.6714303331
 C         4.8886939846        4.6279879644       -1.1618692158
 C         4.6690198084        4.6267879157       -2.6520946863
 C         5.8144885534        4.4062032526       -3.7313089122
 C         5.4953711692        2.9154069028       -4.3132943108
 C         4.0649663493        2.4958117110       -4.7724510604
 C         5.5598118171        5.4078243103       -4.9659677418
 C         7.2574379672        4.4627738544       -3.2238740724
 O         3.5322470533        4.8902833637       -3.0043328539
 O         6.4059824683        2.1263326290       -4.1559654065
 C         3.3708129761        1.6303635011       -3.8030636964
 C         2.6794796047        0.4428661073       -4.4353940730
 C         3.4183059188       -0.9036000766       -4.8158905477
 C         2.7137450372       -2.2793891221       -4.3256069512
 C         1.4792866430       -2.7640784097       -5.2210639561
 O         1.4843298223        0.5229866555       -4.4890714763
 O         3.1153846781       -2.7865515663       -3.3408225759
 C         3.3547247384       -0.8050691576       -6.3440553475
 C         4.9143188199       -0.8355392441       -4.2890789071
 C         0.5597799375       -3.8812734000       -4.5672456588
 C        -0.6273593739       -4.2375347663       -5.4481196099
 C        -1.4395601442       -5.4252803912       -4.9759784076
 C        -2.0538905358       -4.9770903358       -3.5825156051
 C        -3.6595119756       -4.9501104034       -3.4380462174
 C        -2.5956025256       -5.7608431188       -5.8576775102
 C        -0.6447503229       -6.7298339113       -4.8176317067
 O        -0.9337672247       -3.6032351885       -6.4151215409
 O        -1.3559433164       -4.7164260475       -2.6000430710
 C        -4.0470282786       -4.4833163992       -2.0361325232
 C        -4.8081821962       -3.1483627799       -1.9797037195
 C        -5.5353822728       -2.5222597739       -0.6612371408
 C        -4.5813180657       -1.4254265926       -0.0064836832
 C        -4.1208880725       -0.3712480770       -0.9476749292
 O        -4.7715233686       -2.4927149682       -3.0128958869
 O        -4.1539000456       -1.5934799864        1.1048956506
 C        -6.7825672851       -1.8884262953       -1.1164297539
 C        -5.8403544769       -3.6847371698        0.4187979761
 H        -2.5356242090        4.4393700736        3.7365707456
 H        -1.5526684487        4.2734357948        2.2894949729
 H        -3.1471817358        5.1957770665        2.3257591800
 H        -4.6442653248        2.9738531548        5.9212138917
 H        -5.7522947979        1.4600948938        5.6383142122
 H        -4.9396863270        4.7118673257        4.1733701457
 H        -6.3436596196        3.7885927780        3.8769655708
 H        -5.5178917961        4.6505967626        2.5832142604
 H        -6.5052969913        1.4959373285        2.8474063754
 H        -6.2190924877        2.4830701913        1.4842244482
 H        -5.3115125518        1.0502210755        1.7342837598
 H        -4.2132118721        1.6015260334        7.7704301520
 H        -3.9706150315        0.1003960023        6.9288286601
 H         0.1170564160        0.7652463927        4.9157104688
 H         1.2870794817        0.2361406443        6.0152589343
 H         0.3830909627        1.5208860454        7.2192829147
 H         0.4930720530        0.6310816475        8.6698423709
 H        -0.5550068507        2.0182201756        8.6183410956
 H        -2.9175400990       -0.9936199028        8.2639949506
 H        -1.6964030251       -0.6006264535        9.4389907905
 H        -3.0145364923        0.5016123985        9.1213619493
 H         1.1980363372       -2.1672235703        5.1718224590
 H         1.8364279431       -1.0055298844        4.1529242136
 H         2.4044492343       -1.5758364292        0.1415949198
 H         0.8927905019       -1.4488243502       -1.0025395650
 H         1.8738120908       -3.5526996960        1.3814254909
 H         2.0004468657       -3.5451633450        3.0774951352
 H         2.4666918140       -2.0665436304        2.2348876236
 H        -0.7073255167       -3.4810810139        0.6239212008
 H        -0.8328138598       -4.0674265387        2.1506130524
 H        -1.8279360112       -2.7246753779        1.8077253215
 H         2.3901476265        0.5069031417       -1.0434750205
 H         0.7245770569        0.8473753586       -0.6430156091
 H         2.8547733200        4.8332583645       -0.5926529765
 H         3.9963926041        5.1229840049        0.7661126213
 H         1.0482797953        3.1109947957       -0.4761538068
 H         1.2829352608        4.5862065604        0.6009608756
 H         0.1932891938        3.3606660378        1.0314239694
 H         2.2731420066        4.2618794406        2.8272351108
 H         1.8343711708        2.5845292095        3.3952705314
 H         3.4491177203        2.7721749029        2.7746929435
 H         5.7109800218        3.9628455665       -0.8582389765
 H         5.3572799703        5.5882655859       -1.0405254554
 H         3.5150333055        3.2892166883       -5.1706335503
 H         4.2183568602        1.9597799964       -5.6930081344
 H         6.0186191615        6.3903274626       -4.9163594239
 H         4.5002886738        5.6220938550       -4.9094096094
 H         5.8993594883        4.8503762623       -5.9328774059
 H         7.5932836331        3.5588397345       -2.7790197972
 H         8.0175758348        4.5482996857       -3.9931763221
 H         7.5876521187        5.2855706421       -2.5380200463
 H         4.1996005982        1.4060139533       -3.0314228483
 H         2.5697485738        2.2335880430       -3.3308342208
 H         0.8449338124       -1.9768417599       -5.4995264676
 H         1.9668387598       -3.2527274013       -5.9967174421
 H         3.4625277342       -1.8112305184       -6.7695363555
 H         4.1517987488       -0.1698189366       -6.7383401701
 H         2.3117896638       -0.6247744860       -6.6747516023
 H         4.9570428089       -0.7786821143       -3.1783816455
 H         5.4562258553       -1.6352984400       -4.6389744748
 H         5.4168963631        0.0372043216       -4.7054071808
 H         0.1181639679       -3.3985704065       -3.6464786074
 H         1.2256813528       -4.6617416063       -4.3082676608
 H        -4.0059183616       -4.2246336019       -4.1181276736
 H        -3.9757112858       -5.9594564456       -3.6272815043
 H        -2.2704759394       -6.2023699854       -6.8364552002
 H        -3.1364785992       -4.8702138493       -6.0691197871
 H        -3.2543156485       -6.5000011087       -5.4735446389
 H         0.0978603265       -6.6083211341       -4.0586299257
 H        -1.2658203235       -7.5166851398       -4.3949093763
 H        -0.2879421563       -6.9923890215       -5.8286625682
 H        -4.4839693026       -5.2942404132       -1.4461293835
 H        -3.1029202938       -4.3718205826       -1.4850716927
 H        -3.9410890328       -0.6566398633       -1.9829701650
 H        -4.9281986993        0.3945547533       -0.8389775795
 H        -3.2422586203        0.0615262890       -0.5583893438
 H        -7.0871142086       -2.3225350829       -2.0614132917
 H        -6.7583700172       -0.7496213513       -1.1057366518
 H        -7.5472613020       -2.0670582122       -0.3398517521
 H        -6.4603821250       -4.4343745308        0.0428666418
 H        -4.9760614239       -4.2205828778        0.8148808222
 H        -6.3400467230       -3.2330262929        1.2565767401
 Na       -2.6194016233       -0.1988322170        2.2169970803
