155

 C        -2.4018983331        4.2917970264        2.1678351227
 C        -2.8870054216        2.8246473388        2.1796918838
 C        -4.2739206338        2.5079766433        2.8832552115
 C        -4.0961616917        1.5572441222        4.1242783249
 C        -4.3438890232        2.0749583358        5.6516081563
 C        -5.0515115832        3.7876219100        3.2348291533
 C        -5.1490524536        1.8371769532        1.8802421447
 O        -2.3571008087        2.0314518002        1.4202134434
 O        -3.9309833112        0.3958371168        3.9729031340
 C        -3.7986795743        1.1698119806        6.7035506050
 C        -2.2532344731        1.5696012604        6.9309016852
 C        -1.3371110760        0.6812713304        7.7407919212
 C        -0.8438741906       -0.4654997733        6.5664576362
 C        -0.1335847311        0.0036708662        5.3121818020
 O        -1.8608692281        2.5143671839        6.2425527566
 O        -1.2159639200       -1.6217280391        6.7167189997
 C        -0.0865425757        1.4557807064        8.1807281553
 C        -2.1508533452       -0.0139008434        8.8606291592
 C         0.3711279587       -1.1333025363        4.5444429797
 C        -0.3596351294       -1.7238307180        3.3217309257
 C         0.3535660332       -2.3210908009        2.0846494114
 C         0.2296931109       -1.2309340987        0.9603223855
 C         1.4873624692       -1.1592520564       -0.0505298576
 C         1.7873405680       -2.5985884563        2.4810070948
 C        -0.4136828489       -3.4423588837        1.4813855444
 O        -1.5834235336       -1.7234854676        3.3662559445
 O        -0.7496874170       -0.5390834147        0.7862783657
 C         1.8325763375        0.3977192318       -0.1797563619
 C         1.9005689041        1.1599232431        1.1181984185
 C         2.2305420435        2.7117984366        1.0972436920
 C         3.4683961577        3.0787800769        0.3041391060
 C         3.9073690977        4.5504930482       -0.0281661480
 O         1.3222887477        0.7570953985        2.1310469629
 O         4.2528616123        2.2118203967        0.0062643009
 C         1.0099806084        3.4543725723        0.5082680988
 C         2.7251232118        3.0959122873        2.5787870159
 C         5.0163304788        4.6607472979       -1.0715552802
 C         4.6180035150        4.8277363898       -2.5179752549
 C         5.7189777645        4.5476353303       -3.5665977157
 C         5.5527869728        3.0388634997       -4.1102775759
 C         4.1848715873        2.6112503387       -4.6897424178
 C         5.4997941848        5.5357530856       -4.7862778256
 C         7.1184212808        4.6752390449       -2.9580794077
 O         3.4438893184        4.9059053705       -2.8182117365
 O         6.4998557149        2.3190622076       -3.9771500532
 C         3.4349977577        1.7603305879       -3.7144519077
 C         2.7281309096        0.5707806282       -4.3106472435
 C         3.4312683344       -0.6533113263       -4.8894516488
 C         2.6615349830       -1.9149463650       -4.2101754124
 C         1.5986726456       -2.6327768043       -5.0562037829
 O         1.5490367467        0.3436660493       -4.0716391542
 O         2.8774333646       -2.1415628317       -3.0548180942
 C         3.3680067820       -0.6759187599       -6.4684451303
 C         4.9115262546       -0.6221486733       -4.4621610101
 C         0.6595148041       -3.5981466719       -4.2974033124
 C        -0.3519008789       -4.0769804881       -5.2624205587
 C        -1.3913008756       -5.2457453752       -4.8743308043
 C        -1.9961431757       -5.0578299757       -3.4424361912
 C        -3.5580717848       -5.0765176212       -3.4406660082
 C        -2.4560530036       -5.2349122783       -6.0314943609
 C        -0.6917972925       -6.6085653119       -4.7908090869
 O        -0.3999184783       -3.5477674724       -6.3679536401
 O        -1.3598406187       -4.8144012789       -2.4384612139
 C        -4.1765339684       -4.6618113522       -2.0432302339
 C        -5.1112055283       -3.3951905284       -2.0380465108
 C        -5.5938833202       -2.9152552360       -0.6309035961
 C        -4.7119666706       -1.8459659052       -0.0604068198
 C        -4.0573906874       -0.7957768114       -0.9745060621
 O        -5.3324914188       -2.8293930223       -3.0852145777
 O        -4.4219538777       -1.9098833529        1.1188407416
 C        -6.9898886427       -2.1722622426       -0.7991211864
 C        -5.8895062599       -4.0649290369        0.4288340418
 H        -2.0097794143        4.4501329138        3.2028212847
 H        -1.5510112508        4.3774458049        1.4445953602
 H        -3.2230918657        5.0176597067        1.9972143208
 H        -3.8769067645        3.0432185039        5.6003211255
 H        -5.3934276101        2.0715198808        5.7319823455
 H        -4.6068367878        4.3777960402        4.0889887483
 H        -6.0922473111        3.6144205187        3.4329628656
 H        -5.0958114707        4.5742426135        2.4241195109
 H        -6.2103705303        1.5966922226        2.1374838014
 H        -5.2157910273        2.3665278949        0.9201136833
 H        -4.7388112423        0.8568394774        1.7785331218
 H        -4.3634068679        1.4022859479        7.5799606670
 H        -3.8386521648        0.1358870601        6.5259999954
 H        -0.8059588871        0.6780855715        4.7234388607
 H         0.6908842276        0.7470820751        5.5761324537
 H         0.0534848120        2.3176392123        7.5591210164
 H         0.7902469307        0.8713575683        7.8808931276
 H        -0.1277282883        1.6143995199        9.1827274114
 H        -3.0085314734       -0.5291508162        8.5230721850
 H        -1.4993689352       -0.7265685039        9.3326238531
 H        -2.5153734947        0.6699995763        9.6348591151
 H         0.5125051083       -2.0321386801        5.1834881582
 H         1.3776401113       -0.9961667705        4.1989688059
 H         2.3911379705       -1.5504152910        0.4437293917
 H         1.2991216968       -1.6704485762       -1.0136886906
 H         2.2551699973       -3.1961826695        1.6698129753
 H         1.9769658434       -3.1538775673        3.3884999928
 H         2.3990290014       -1.6503863214        2.6440814343
 H         0.0140416283       -4.0489565973        0.6671677567
 H        -0.7059185096       -4.1777046945        2.1977659308
 H        -1.3287039927       -3.1112349289        0.9738223619
 H         2.8477482356        0.5646308136       -0.5098154430
 H         1.1470267333        0.7726915938       -0.9380420603
 H         3.1282736525        5.1205861473       -0.4852233905
 H         4.2238061390        5.1634678005        0.8231220368
 H         0.9969205520        3.4668041992       -0.6276634912
 H         1.1650101299        4.4855677359        0.7825006451
 H         0.0622310790        3.0227985673        0.9205007184
 H         3.1001031935        4.1186867834        2.3614346008
 H         1.9491161842        3.0478252449        3.3712751961
 H         3.5168813026        2.4693409870        2.8089650422
 H         5.7254419516        3.8202253300       -1.0178370113
 H         5.6841803090        5.4589697091       -0.8017146299
 H         3.5628743651        3.4610479621       -4.9410427144
 H         4.1673601806        2.0306782299       -5.6283644419
 H         5.3977455136        6.5856340764       -4.3883492508
 H         4.5865566248        5.1384117124       -5.3668877163
 H         6.4134158267        5.6808725594       -5.3282016097
 H         7.4629176946        4.1444611582       -2.1452448769
 H         7.8993085696        4.3569364846       -3.6436960319
 H         7.4454556831        5.7533527770       -2.8402696193
 H         4.1419398794        1.2633777934       -3.0901543962
 H         2.8525826345        2.4375299709       -3.0673436030
 H         0.9261383778       -1.9313929282       -5.5969232538
 H         2.1366521371       -3.3027257946       -5.7066226291
 H         4.1543867415       -1.4293156358       -6.8081016983
 H         3.8709794450        0.2703912847       -6.9008861342
 H         2.3753535594       -0.7855645395       -6.9217628617
 H         4.9589349073       -0.6323795317       -3.3314021986
 H         5.4435073520       -1.4755812027       -4.8243433431
 H         5.3987716763        0.2957409751       -4.8249975764
 H         0.0837294986       -2.8581739835       -3.6060642704
 H         1.1388611061       -4.3918419542       -3.6961110730
 H        -3.8152725324       -4.2853769992       -4.1168867037
 H        -3.9816813167       -6.0406210948       -3.7190024444
 H        -1.9969651371       -5.6553702655       -6.9964869762
 H        -2.9103027529       -4.2571838334       -6.1909976775
 H        -3.2876933283       -5.9842347757       -5.8417282992
 H         0.2672885025       -6.4984011825       -4.3258701437
 H        -1.3857476435       -7.3012330494       -4.3009039445
 H        -0.5588178804       -7.0166571171       -5.8408859466
 H        -4.6966780873       -5.5278225406       -1.6001967551
 H        -3.3420695860       -4.4531763668       -1.3532150597
 H        -4.4229518241       -0.9041039445       -1.9987188911
 H        -4.3925547300        0.1334145333       -0.5803531126
 H        -2.9838768050       -0.7875888672       -0.9964430470
 H        -7.7782259234       -2.7594569551       -0.5098094132
 H        -7.2803275889       -1.9417234866       -1.8827201789
 H        -6.8846767168       -1.2438922742       -0.1760791194
 H        -6.7490368781       -4.6656762201        0.0514980616
 H        -5.0551950863       -4.6913806075        0.6797703309
 H        -6.2689353059       -3.6687968604        1.4519531552
 Na       -2.7409473332       -0.3230197824        1.9307185244
