155

 C        -2.2904001306        4.0782645227        2.0727357874
 C        -2.9762114554        2.7443424492        2.1003012520
 C        -4.3815118556        2.4966053843        2.6978933747
 C        -4.1905207794        1.5159791047        3.9417204523
 C        -4.4379233073        2.0161745482        5.3598647523
 C        -4.9739454975        3.8621924743        3.1509696092
 C        -5.1754170410        1.8226386883        1.5729962565
 O        -2.2767279853        1.8140724523        1.7610258829
 O        -3.9575526547        0.3077477399        3.7714905504
 C        -3.6020742371        1.2455362441        6.4878459607
 C        -2.1771599921        1.7096529134        6.7917828784
 C        -1.3552246148        0.7066236021        7.6732119785
 C        -0.9410461807       -0.4899700858        6.7190167126
 C        -0.5312629610        0.0182132211        5.2383768853
 O        -1.5738112535        2.6249762083        6.2821663739
 O        -1.2197248377       -1.6407078492        6.9553009447
 C         0.0149281493        1.2905126728        8.1644986942
 C        -1.9839305305        0.1286941447        8.9476732358
 C         0.3087814872       -1.0378641516        4.4513959369
 C        -0.4712718235       -1.6805213458        3.3781599368
 C         0.3263232562       -2.1544616768        2.1405021181
 C         0.3501446014       -1.2014335398        0.8341122981
 C         1.5393238836       -0.8954606741       -0.0001053586
 C         1.7728353959       -2.6588534637        2.5308276362
 C        -0.3369386086       -3.4358602637        1.6125492368
 O        -1.6597819222       -1.7182589682        3.3871154286
 O        -0.7566777085       -0.8169533915        0.4573713318
 C         1.8830827113        0.5645011738       -0.2793788413
 C         1.8233714127        1.2069193652        1.1087675086
 C         2.2965878657        2.6897198549        1.2266960414
 C         3.5968298901        2.9107310044        0.3159518504
 C         3.8356446480        4.3223673215        0.0623301758
 O         1.4080735145        0.6986777803        2.1330983166
 O         4.2139940392        2.0700585995       -0.3020077931
 C         1.2156791862        3.5768750837        0.6186313379
 C         2.3783213813        3.1663725567        2.6030788307
 C         5.0082908761        4.7252405990       -0.9123213851
 C         4.5696413334        4.7372767857       -2.4228188858
 C         5.6174553756        4.5462872195       -3.5740648493
 C         5.5502564370        3.0217962617       -4.0550484771
 C         4.2039674924        2.6404888281       -4.7090530985
 C         5.4198955813        5.4840157010       -4.7385434300
 C         7.0340504172        4.8977276621       -3.0263255788
 O         3.4201243621        4.9139883292       -2.7920138239
 O         6.5644716640        2.3378525891       -3.9105811549
 C         3.5003562880        1.8978352871       -3.4154862171
 C         2.7456856518        0.7121050363       -4.0537193079
 C         3.5370723985       -0.5296935789       -4.7171932296
 C         2.7328153764       -1.7555074968       -4.0744940608
 C         1.7358759579       -2.4809240165       -4.9901011072
 O         1.5593174652        0.6371498515       -4.0402641792
 O         2.8851064693       -1.8430160183       -2.8638539696
 C         3.3986463639       -0.5579320448       -6.3174861904
 C         5.0561766893       -0.6555278333       -4.4601737744
 C         0.7636259994       -3.5031248457       -4.3053803096
 C        -0.4012345374       -4.0048164205       -5.2916461501
 C        -1.3979987574       -5.1664916872       -4.9032095787
 C        -2.0594888750       -4.9671752139       -3.4878466764
 C        -3.6063151464       -4.9427799916       -3.4096635329
 C        -2.4237592418       -5.3214178751       -6.0006081189
 C        -0.5429061265       -6.4516144702       -4.8392098375
 O        -0.3816230842       -3.6596706543       -6.4245056799
 O        -1.3699834261       -4.6664067427       -2.4882681056
 C        -4.1967396744       -4.7875113588       -1.9965562696
 C        -5.1660082244       -3.6325344861       -1.9057912961
 C        -5.7757010411       -2.9996961915       -0.5472320096
 C        -4.6562362680       -2.0161354897       -0.0996885998
 C        -4.1854906161       -1.0462064723       -1.1722007848
 O        -5.5767508003       -3.0877316467       -2.9201303651
 O        -4.2976284121       -2.0412262999        1.0613706605
 C        -7.0695946200       -2.2299277558       -0.8443546170
 C        -5.9312735905       -4.2254793756        0.4150155074
 H        -1.9687851846        4.3864111262        3.0414552191
 H        -1.4392957762        3.9793187672        1.4387887686
 H        -2.9510734587        4.7678651880        1.5667572361
 H        -4.3355508382        3.1112607640        5.2391735603
 H        -5.5180125348        1.6294492661        5.3960306573
 H        -4.2315620504        4.5254399784        3.5259281728
 H        -5.7930908029        3.7946342157        3.8706483694
 H        -5.4730025278        4.3377636989        2.3660880407
 H        -6.2151396979        1.7342100983        1.8010723594
 H        -5.1493124076        2.4572968008        0.7207405389
 H        -4.9057379604        0.8051497980        1.3356772287
 H        -4.1497088983        1.3292796403        7.4445746502
 H        -3.4463741975        0.1152444871        6.3558831902
 H        -1.4072338416        0.2855904127        4.6689651319
 H         0.0040910430        0.9303077752        5.2809166283
 H         0.6304400936        1.5909380440        7.2662782038
 H         0.5106941978        0.5141764021        8.7172208864
 H        -0.1758147101        2.1617243108        8.8591205302
 H        -2.6716866258       -0.6989037455        8.6021617682
 H        -1.1993499804       -0.3497445825        9.5879009902
 H        -2.6053568686        0.8334164000        9.5317114994
 H         0.6923888840       -1.8924161496        5.0089564019
 H         1.2278256784       -0.6622817377        3.9526842910
 H         2.3886356010       -1.3450459690        0.5109847963
 H         1.4710726033       -1.3391999882       -1.0278247049
 H         2.1792115227       -3.3365628824        1.8251134460
 H         1.7743782726       -3.1410190885        3.5349908710
 H         2.5336053194       -1.9181028843        2.6436780890
 H         0.2078112878       -3.7138904508        0.7573604613
 H        -0.4170036236       -4.3268306454        2.1921959272
 H        -1.3136964061       -3.3626271441        1.0335636765
 H         2.7457377112        0.7199243263       -0.9912699717
 H         0.9530902823        0.8832152412       -0.8399622518
 H         2.9377202112        4.9008995353       -0.2713407809
 H         4.0451977769        4.7671518272        1.0481627720
 H         1.2369578029        3.5636096074       -0.4441310925
 H         1.4053864838        4.6356849373        0.7896449285
 H         0.3087316455        3.2412627828        1.0231457329
 H         2.2652949109        4.2430293987        2.6603811751
 H         1.5679157058        2.5972467981        3.0419349012
 H         3.3606452753        2.8387843998        3.0819369856
 H         5.8543289644        4.0462796550       -0.8247130025
 H         5.5355393017        5.6553325194       -0.6161193202
 H         3.5636042926        3.4403960374       -5.1208581624
 H         4.2761446136        1.8068894832       -5.3876470131
 H         5.7451162947        6.4260001123       -4.4522674363
 H         4.4739559337        5.3861555426       -5.0820018683
 H         6.1641776836        5.2082040529       -5.5530915222
 H         7.5993475503        4.1985673904       -2.3378059665
 H         7.8022148177        5.0662823521       -3.7771145431
 H         7.0895986922        5.8135861758       -2.5178532238
 H         4.2871247906        1.5601755917       -2.6051568254
 H         2.8482072744        2.6197808576       -2.9224722237
 H         1.1353862127       -1.6253077766       -5.2442137882
 H         2.1215973999       -2.8614440075       -5.9860329957
 H         3.3206024851       -1.5049040085       -6.7430216069
 H         4.2017483759       -0.1228284724       -6.8042443805
 H         2.5598956182        0.1350543430       -6.5267820737
 H         5.2714563254       -0.5013463608       -3.4288630291
 H         5.4331521634       -1.6671635875       -4.7052634678
 H         5.5387490350        0.1401834483       -5.0021326714
 H         0.4582782710       -3.0564097563       -3.4337544157
 H         1.2102754720       -4.4561638086       -4.0662241454
 H        -3.9375652762       -4.0956377364       -4.0300228971
 H        -3.9898041411       -5.8737052122       -3.8667062184
 H        -1.8815444803       -5.4974709407       -6.8888747823
 H        -2.9198630931       -4.3647952179       -6.1722316248
 H        -3.1546626508       -6.0504933777       -5.8357059570
 H        -0.2560861737       -6.5599694095       -3.7813863314
 H        -1.0681670889       -7.2475373325       -5.3441669522
 H         0.3925313538       -6.3382444744       -5.3041265478
 H        -4.7955909123       -5.6441643580       -1.6253508411
 H        -3.3175262584       -4.6078485054       -1.3750573635
 H        -4.7706440465       -1.0563322975       -2.0810364270
 H        -3.9830376927        0.0435832354       -0.8117750982
 H        -3.2154667403       -1.4868688330       -1.4350132119
 H        -8.0237954909       -2.8047920796       -0.4757728200
 H        -7.2217334145       -2.3333492409       -1.8847712108
 H        -7.0731965716       -1.2212226924       -0.4694408987
 H        -6.6400982130       -4.8974647878        0.0858523329
 H        -4.9342213586       -4.6614530207        0.5525031136
 H        -6.2381804602       -3.9854686677        1.3455527859
 Na       -2.7953461021       -0.4550140204        1.8755019995
