155

 C        -3.5518205205        3.4634167757        1.4847368719
 C        -3.8989910276        2.0512887411        1.6465449675
 C        -5.2230396495        1.6247828897        2.4195190653
 C        -4.8226260365        0.7008289866        3.6233559414
 C        -5.1135925329        1.0189251103        5.1136502310
 C        -6.1663408785        2.8709410471        2.7040333261
 C        -6.0034426206        0.6724952873        1.5124464665
 O        -3.1812996879        1.1743692990        1.2020619119
 O        -4.2015192122       -0.3180228068        3.4411273444
 C        -3.8494631656        0.9047603950        5.8666886208
 C        -2.7160559348        1.6914416175        5.3684289656
 C        -1.2379324830        1.7060572044        6.1351494100
 C        -0.7064250878        0.1361609939        5.9132531962
 C        -0.3355491662       -0.3392362092        4.4756744177
 O        -2.7871786243        2.3523617598        4.3391884593
 O        -0.7850921760       -0.5577954461        6.9167640613
 C        -0.3466272366        2.7633837267        5.5600277161
 C        -1.6186758853        1.9088680367        7.6081420211
 C        -0.2258812554       -1.9184468290        4.3228830919
 C        -0.8357840577       -2.3563294052        3.0557426728
 C         0.0083889885       -2.7782847481        1.7849168944
 C         0.1838726957       -1.5621431657        0.8796652811
 C         1.6407709987       -1.0898243988        0.4245201334
 C         1.3363908264       -3.4894156660        2.1561684094
 C        -0.8096394559       -3.7905682218        1.0517304914
 O        -2.0357861984       -2.4829105138        2.9664751260
 O        -0.7711422958       -1.0083378084        0.3883866078
 C         1.8179520517        0.5053249760        0.1611225243
 C         2.1791920199        1.2511985889        1.4468826376
 C         2.3709771473        2.7204302755        1.4758826432
 C         3.6764858187        3.2671884696        0.6648347247
 C         4.3397832256        4.4763765498        1.1761170726
 O         2.2212364648        0.5783636431        2.4692798066
 O         4.1449052093        2.5634799442       -0.1631900283
 C         1.0203286715        3.2821955983        0.8818658779
 C         2.3429113193        3.0330472818        2.9625936017
 C         5.3775024565        4.8623306987        0.0053271995
 C         4.6239111585        5.3957516630       -1.2023838483
 C         5.4630522763        5.7732563326       -2.4746446042
 C         5.6947692960        4.3734775403       -3.2317686067
 C         4.5353970597        3.4314093005       -3.5898756835
 C         4.5810564297        6.6358879423       -3.3217968861
 C         6.8928283239        6.3856567946       -2.2516380273
 O         3.3802440386        5.2094625252       -1.2635580996
 O         6.8221369201        3.9326590340       -3.2593688560
 C         5.0865318756        2.1384422622       -4.0186587335
 C         3.9940140623        1.1654115806       -4.3277270568
 C         4.2178775518       -0.3943729177       -4.5382712194
 C         3.0674977737       -1.1973848265       -3.7443492587
 C         1.7490911734       -1.4478501927       -4.4808023423
 O         2.8608273976        1.5690458445       -4.5172006256
 O         3.1566394948       -1.6111886313       -2.6125029637
 C         4.1909206690       -0.7569268653       -6.0141873717
 C         5.5844834053       -0.8425798334       -3.9757948175
 C         1.0722832901       -2.6952082062       -3.8725293122
 C        -0.1578348112       -3.0321916206       -4.5730083087
 C        -0.5726225411       -4.5061881760       -4.5501195143
 C        -1.3525330108       -4.7265978258       -3.2067637725
 C        -2.8498079451       -4.9626901119       -3.2899721941
 C        -1.5012640746       -4.7383723193       -5.8178815521
 C         0.6182617207       -5.4850141790       -4.4416596618
 O        -0.9227667738       -2.1789231803       -5.0004556400
 O        -0.6737986526       -4.7301340031       -2.1981477265
 C        -3.5602089473       -4.9137853199       -1.8734924654
 C        -5.0910185049       -4.7297802480       -1.9953234165
 C        -5.8135465723       -4.2552881278       -0.6032912859
 C        -5.2370688191       -2.8059481487       -0.3321991442
 C        -5.1992356965       -1.8319946171       -1.4557646215
 O        -5.6105393772       -4.9632169114       -3.0586987962
 O        -4.7500955829       -2.5732405417        0.8142378032
 C        -7.2983279611       -4.0460825396       -0.9242327991
 C        -5.5648510407       -5.2374061199        0.4868844586
 H        -2.8592608971        3.8529789089        2.2201641582
 H        -3.0232640378        3.5466365945        0.5579999577
 H        -4.3706778696        4.1536093325        1.3625250759
 H        -5.5778940236        2.0467173455        5.2901053848
 H        -5.7599553922        0.1621060503        5.3803128967
 H        -5.7803594743        3.5887735272        3.3854882247
 H        -7.0725466316        2.4613852574        3.1279428368
 H        -6.4958502622        3.3762251476        1.8325837765
 H        -6.8990756143        0.4839168418        2.0372182898
 H        -6.3312114866        1.2041006988        0.6145572248
 H        -5.5663262337       -0.2960206560        1.2336647028
 H        -3.9891932569        1.0641893879        7.0094288322
 H        -3.6488691923       -0.2033286575        5.8482238822
 H        -0.9658185517        0.1558992043        3.8015774016
 H         0.6729102401        0.0461834443        4.1752848365
 H        -0.8896153453        3.6434657486        5.1737905714
 H         0.0383247478        2.4136950039        4.6410881634
 H         0.4363750538        3.0818690691        6.1188276836
 H        -2.2620732922        1.0200171277        7.8798502175
 H        -0.7007130033        2.0631790900        8.1613792457
 H        -2.2953978651        2.7727687745        7.5898876495
 H        -0.7311713373       -2.3778075038        5.1961038228
 H         0.7268744570       -2.3945975482        4.4314774926
 H         2.3279528484       -1.3776313475        1.2339883437
 H         1.8032843020       -1.5766609512       -0.5541399058
 H         1.7813395190       -3.8710344801        1.2332715359
 H         0.9396370268       -4.3411800469        2.8077361232
 H         2.1080471966       -2.9442400637        2.7447884190
 H        -0.3064964338       -4.2296945831        0.1998256234
 H        -1.1478001579       -4.6071376751        1.6596221882
 H        -1.7327822810       -3.2634284098        0.6807015935
 H         2.5156935053        0.5234671301       -0.6593508740
 H         0.9426896241        0.9162436957       -0.4232001141
 H         3.8256654332        5.2927945076        1.5965917565
 H         4.9419412808        4.1311511114        2.0614008233
 H         0.8681000516        3.1692254367       -0.1624271351
 H         0.9707405341        4.3756731878        1.0904493337
 H         0.1163377261        2.8460428554        1.2417957654
 H         2.5930677058        4.1400245370        3.0174807563
 H         1.3962693136        2.9445798959        3.4613732461
 H         3.0646979845        2.5406122131        3.5479623657
 H         5.9758649591        3.9886028293       -0.2933856938
 H         6.0670953713        5.6249146367        0.3662276577
 H         3.9282187945        3.3193341270       -2.7183183169
 H         3.8579153108        3.8003756955       -4.3954970453
 H         4.2468933063        7.4968626865       -2.8106072409
 H         3.7819273462        6.0646299865       -3.8419121028
 H         5.2345535154        7.1548957192       -4.0360865273
 H         7.6269166830        5.5830590991       -1.7985287384
 H         7.3236080353        6.5660976550       -3.2318174412
 H         6.8796988585        7.2965141120       -1.6886845252
 H         5.6360227150        2.2655817556       -4.9672709510
 H         5.7230299972        1.8165239802       -3.2928341864
 H         1.2176735983       -0.5366665576       -4.4120654623
 H         1.8379699074       -1.5096658461       -5.5307281550
 H         3.9337844017       -1.8282231843       -6.1397635654
 H         5.1758465173       -0.5222556730       -6.4462596257
 H         3.4589738761       -0.2230449926       -6.6321561392
 H         5.8578023423       -1.7994017078       -4.3450728857
 H         6.4122487888       -0.0673619728       -4.0176359413
 H         5.3468680156       -1.0092975036       -2.9338685657
 H         0.7669908848       -2.6535758488       -2.8759928032
 H         1.7583608605       -3.5453839367       -3.8895127513
 H        -3.3366215950       -4.2770218852       -3.9483885341
 H        -3.2080323408       -5.8710172248       -3.7711244031
 H        -0.8330687499       -4.6711776831       -6.6399015805
 H        -2.3055529915       -4.0034138493       -6.0123067922
 H        -1.8333553387       -5.7409478379       -5.9130898068
 H         1.4453981850       -5.2792531482       -5.1235697455
 H         1.1317777583       -5.5123958084       -3.4954645224
 H         0.2124634318       -6.4869299756       -4.6823819183
 H        -3.4196538945       -5.8399305035       -1.3024647217
 H        -3.0878086675       -4.1042444938       -1.3410480018
 H        -4.1686219744       -1.7114466076       -1.7007229647
 H        -5.6544333024       -2.3142400121       -2.3162696500
 H        -5.6377683325       -0.9141654703       -1.4337040705
 H        -7.6750035617       -4.9509088426       -1.3033379774
 H        -7.4224522178       -3.2773418800       -1.7480033338
 H        -7.9100497819       -3.6454731185       -0.0554693828
 H        -6.2233020691       -6.1220553592        0.3264644781
 H        -4.5034452601       -5.6027193901        0.3428172929
 H        -5.7392946451       -4.8029382842        1.4878566720
 Na       -3.1215906026       -1.1922870143        1.3032816390
