155

 C        -3.9219492041        3.4093775696        1.4051304878
 C        -4.4667595152        2.0083062531        1.5953350521
 C        -5.6845985129        1.6430043805        2.4218466753
 C        -5.1447986861        0.8171060159        3.7482164781
 C        -5.3639921701        1.2762680897        5.2444877322
 C        -6.6055022242        2.7873800108        2.8977288368
 C        -6.5763558389        0.5384875270        1.6528199028
 O        -3.9709812278        1.1152743895        0.9585695893
 O        -4.3403214288       -0.0831386727        3.4843008504
 C        -4.1863408997        0.8830407554        6.0592022693
 C        -2.9481593060        1.8272175440        5.4000079816
 C        -1.4081851680        1.5261973242        5.9343031629
 C        -1.0473798625        0.0611506343        5.7887987523
 C        -0.2091311978       -0.4358854162        4.4593762802
 O        -3.1766930712        2.6882138252        4.5762815773
 O        -1.3479453312       -0.7776849762        6.6275275890
 C        -0.3929042907        2.4720870196        5.2445813906
 C        -1.6200163649        2.0008089926        7.5419917363
 C        -0.3575215973       -1.9633112996        4.4162161520
 C        -0.7635824532       -2.4654848980        3.0106903638
 C         0.2989697618       -2.5422138867        1.8160240095
 C         0.0938095194       -1.2037212597        0.9643579619
 C         1.2286509915       -0.9607479679       -0.1366058130
 C         1.7327061312       -2.8074913844        2.1921137859
 C        -0.3489255975       -3.6387250765        0.9031061755
 O        -1.9333558218       -2.7480827371        2.7262119082
 O        -0.9082699728       -0.5285684103        0.8980320494
 C         1.4402842289        0.6105992116       -0.1012238757
 C         1.9141940812        1.0036413003        1.4262884487
 C         2.3519704640        2.4682521197        1.7368076038
 C         3.4378232410        3.0266822618        0.7739206893
 C         4.0411702551        4.3236460087        1.1776810727
 O         1.5792431382        0.2582620120        2.3495442859
 O         3.7584037999        2.4319862132       -0.1776249896
 C         0.9788430838        3.3587248355        1.6891369626
 C         2.9022854375        2.4741583692        3.2447860452
 C         5.1025099841        4.8795158494        0.1448050051
 C         4.5683446894        5.4332183678       -1.1562982479
 C         5.4940707851        5.7790458520       -2.4473716564
 C         5.8355091222        4.3839412810       -2.9903927386
 C         4.7393345652        3.3214407272       -3.1414147458
 C         4.7575783420        6.5997811561       -3.5246085338
 C         6.7581601345        6.6062819406       -2.0219987667
 O         3.3703563014        5.6945626849       -1.2782643616
 O         7.0013407801        4.0935071924       -3.2129039700
 C         4.6828514967        2.6504296025       -4.5524544045
 C         3.7765748420        1.3614053305       -4.6332293067
 C         4.4501988615       -0.0180546897       -4.0983667874
 C         3.3596295423       -1.0431542103       -3.5611850006
 C         2.2712523754       -1.5271135391       -4.5519090271
 O         2.6872982669        1.4915285661       -5.1860573012
 O         3.2507891704       -1.2663806601       -2.3770778017
 C         5.1196237493       -0.7007097244       -5.3462379166
 C         5.6074442579        0.2002568640       -2.9934593070
 C         1.7822192919       -3.0050355985       -4.2658227758
 C         0.3183081059       -3.0839296909       -4.6012758017
 C        -0.3152421557       -4.6444148861       -4.7126572450
 C        -1.1167213436       -4.7881929011       -3.3688489888
 C        -2.7583172289       -4.8937405286       -3.5004172397
 C        -1.0675402256       -4.7753468652       -5.9965102496
 C         0.7758715236       -5.7971530881       -4.6605078526
 O        -0.4509741598       -2.1770786966       -4.7746634738
 O        -0.5199584694       -4.8521277094       -2.2842284936
 C        -3.4054664227       -5.4748574757       -2.1773109060
 C        -4.8520995945       -5.0262440635       -2.2516034695
 C        -5.4593331070       -4.4907057681       -0.8149173900
 C        -4.8660010340       -3.0908124570       -0.6121141416
 C        -5.4854554130       -2.0638813307       -1.4919774051
 O        -5.5803389257       -5.1929953504       -3.1773373363
 O        -3.9514930675       -2.8949457372        0.1841800001
 C        -7.0587845248       -4.4164499520       -0.8304143279
 C        -4.9717244012       -5.3084324981        0.4105161220
 H        -3.8849842983        3.9879867888        2.3493725474
 H        -2.9393408561        3.2452600303        1.0097305089
 H        -4.3892251755        4.1200278989        0.7427584914
 H        -5.6322391031        2.3542503681        5.3665526042
 H        -6.2743910575        0.8005344021        5.6420188793
 H        -6.2289780601        3.4386359466        3.6007015117
 H        -7.5367244388        2.3720060496        3.2643598286
 H        -6.9468231349        3.3808416780        2.0353706055
 H        -7.4090774251        0.2829989644        2.2718051295
 H        -6.9206389825        0.9172434374        0.6907423794
 H        -5.9544733795       -0.3501608102        1.4520918126
 H        -4.2446467546        1.1969767436        7.1894822346
 H        -4.0054133551       -0.2138475524        6.0076519235
 H        -0.8048596121       -0.0167040015        3.7142702147
 H         0.8211480219       -0.1782701228        4.3531966200
 H        -0.5176503049        3.4497803962        5.7731312032
 H        -0.7201498100        2.5147505645        4.2493257588
 H         0.5851982238        2.2419807906        5.1958011647
 H        -1.8017932722        1.0789815159        8.1874723775
 H        -0.6491624251        2.4308435086        7.7802957249
 H        -2.3314309522        2.8738858655        7.5824642044
 H        -1.0840662562       -2.2098502705        5.1840135238
 H         0.6574863275       -2.3014930982        4.7584675835
 H         2.1660633245       -1.4534094983        0.0019978642
 H         0.9444984431       -1.3103221154       -1.1527974761
 H         2.4183015509       -3.1821052720        1.3786393131
 H         1.8601932066       -3.5593058665        2.9735115959
 H         2.2127284142       -1.8560162617        2.4621376274
 H         0.1545786511       -3.6371904513       -0.0456099128
 H        -0.3344606082       -4.6041269024        1.3555273991
 H        -1.3972847354       -3.3017230712        0.6261910998
 H         2.1004874992        1.0493416821       -0.9441906475
 H         0.4412142996        1.1123235199       -0.1507699426
 H         3.2012450992        5.0134932302        1.4162603679
 H         4.6265701542        4.1739715941        2.0700455392
 H         0.4826475564        3.4507552933        0.7944916912
 H         1.3158811847        4.3421993509        1.9257673635
 H         0.2097217608        3.2577011277        2.4796310405
 H         2.9339125501        3.4950910471        3.6977612316
 H         2.2972415196        1.7997403095        3.8232562408
 H         3.8872417835        2.0324013188        3.2864603603
 H         5.9722649630        4.2257285460        0.0181827734
 H         5.5291552707        5.7574766528        0.6206692204
 H         4.8295251325        2.5624012988       -2.4018318578
 H         3.7830739741        3.8257925128       -3.0535597606
 H         4.4728447875        7.5513331347       -3.1129822199
 H         3.8717137852        6.1470074851       -4.0491952331
 H         5.5806790097        6.6647247292       -4.2598684732
 H         7.3990541736        6.0277709160       -1.2635055124
 H         7.3113840463        6.7996155912       -2.9073323026
 H         6.2926584716        7.4431221965       -1.5200692288
 H         4.3652051974        3.4601475187       -5.3652665254
 H         5.6311227816        2.3503553890       -4.8599024909
 H         1.4486304060       -0.9405096475       -4.3095868555
 H         2.7194909850       -1.3392911096       -5.5511753910
 H         5.6068451038       -1.6319207117       -5.1109365864
 H         5.7920191742        0.0200116830       -5.7539048915
 H         4.3893889088       -0.9941076323       -6.0933755220
 H         6.4305466060       -0.4675242209       -3.2703645574
 H         6.0806918047        1.1846462083       -3.0120822988
 H         5.2620708243       -0.0117545137       -2.0105844448
 H         1.9516449867       -3.2810274758       -3.2426475793
 H         2.2670667969       -3.7417712589       -4.9174386331
 H        -3.2253264455       -3.9044136959       -3.6328338005
 H        -3.0929370306       -5.5172217425       -4.3551422012
 H        -0.4974689400       -4.4386780958       -6.7804391249
 H        -2.0033070623       -4.2207108275       -6.0053639960
 H        -1.3138943024       -5.7864471780       -6.2396900179
 H         1.6178797877       -5.7002044879       -5.3110285939
 H         1.1307670449       -5.8724075293       -3.6348410888
 H         0.3943087774       -6.7755899814       -5.0870150589
 H        -3.3353478686       -6.5559270185       -2.1637052096
 H        -2.8139939250       -5.1761542827       -1.3366035422
 H        -4.9269962273       -1.1917686036       -1.6412238465
 H        -5.7550143642       -2.4553740636       -2.4781413302
 H        -6.3556122210       -1.7207339327       -1.0101017697
 H        -7.5217123947       -5.3648797785       -0.8430913719
 H        -7.3997626911       -3.7557053867       -1.6556369222
 H        -7.2789481732       -4.0486220965        0.2064176999
 H        -5.1202233724       -6.3965021905        0.1522920463
 H        -3.9241189010       -5.2571727585        0.8832928268
 H        -5.6625899075       -5.0864972309        1.1949323901
 Na       -3.1325482685       -1.1099859367        1.5674882047
