155

 C        -4.3122766100        3.2545420994        1.1793419787
 C        -4.6606614229        1.8621051522        1.3619548894
 C        -5.7353457910        1.5820368382        2.4146732859
 C        -5.0598785194        0.7017175550        3.6486789816
 C        -5.4418084324        1.0879728112        5.1210577135
 C        -6.4570024797        2.8372956214        2.7989058827
 C        -6.7823760619        0.5669597100        1.8966955730
 O        -4.0592306460        0.9577476982        0.7531431771
 O        -4.4064759487       -0.2372604394        3.3344731858
 C        -4.1217720668        0.8955932342        6.0114435342
 C        -2.9922430860        1.8306573480        5.4742721409
 C        -1.5642858446        1.4491641529        6.1137984000
 C        -1.2318009868       -0.0360919194        5.7796900465
 C        -0.6065971076       -0.3577521769        4.4051364458
 O        -3.0924892415        2.7213203643        4.6398926661
 O        -1.5324764713       -0.8060379115        6.6571329351
 C        -0.5667503858        2.5058605431        5.3972629136
 C        -1.4136362273        1.6219858038        7.6668411268
 C        -0.1549537059       -1.8955048047        4.3407798277
 C        -0.8315845079       -2.4808900557        3.0499932765
 C         0.1827607145       -2.5861373110        1.7832535050
 C         0.0287223919       -1.1129065044        0.9142250676
 C         1.0966379617       -0.7458349769       -0.1463387458
 C         1.5537691687       -2.9118212224        2.2541663771
 C        -0.3106089178       -3.7065949871        0.7746947913
 O        -2.0311894451       -2.6563622981        2.9572388366
 O        -1.0596721690       -0.5141967614        0.9127808242
 C         1.6030666644        0.6421114426       -0.1399927540
 C         1.8471596363        0.9974177623        1.3858483758
 C         2.4582540209        2.4964498935        1.7958601447
 C         3.5376520125        3.0866802372        0.7974125200
 C         4.2770236192        4.3614541140        1.1841395686
 O         1.3243235809        0.3667568785        2.2841506218
 O         3.8859724943        2.4807868144       -0.2396943871
 C         1.2141120306        3.5020450040        1.7727209851
 C         3.0061641399        2.4058986593        3.2255536033
 C         5.0848970177        5.0849577400        0.1313726077
 C         4.3991622782        5.7219456956       -1.1887235412
 C         5.4047079915        5.8269009313       -2.3597288460
 C         5.7131909834        4.3103277747       -3.0020639682
 C         4.5231121323        3.4191268827       -3.2767452064
 C         4.7262949967        6.5551416029       -3.5547026656
 C         6.7757513456        6.3168759464       -1.8951996478
 O         3.2280647364        5.9939150354       -1.1631455286
 O         6.8290349917        4.0676691491       -3.4460322873
 C         4.7410529458        2.6148668823       -4.5935542211
 C         3.9633488807        1.2867232565       -4.6255658736
 C         4.6746067137       -0.0347178647       -4.0917946523
 C         3.4089313184       -0.9545934440       -3.6680500707
 C         2.2729903997       -1.4722820455       -4.6569415414
 O         2.7825098084        1.2593872225       -4.8455462638
 O         3.2517472189       -1.2070298819       -2.4882982929
 C         5.5044249260       -0.7404794533       -5.1588366359
 C         5.4217863860        0.2694799094       -2.7856961704
 C         1.7799110537       -2.7992061975       -4.2681853845
 C         0.3164638827       -3.1850514410       -4.6752346357
 C        -0.2609300286       -4.6171352750       -4.7109102279
 C        -1.1150407607       -4.8402232668       -3.4323757855
 C        -2.6062395819       -4.9390644414       -3.4588996283
 C        -1.1529551490       -4.8086475906       -6.0306666184
 C         0.9336023346       -5.7481198337       -4.7369858775
 O        -0.5409781829       -2.3109551612       -4.7362456304
 O        -0.5184143194       -4.9260911562       -2.3754639874
 C        -3.1395785115       -5.3011897445       -2.1184910017
 C        -4.6397809559       -4.9724806632       -2.1049621147
 C        -5.3433888241       -4.4792701386       -0.8126830166
 C        -4.7997318212       -3.0285733240       -0.5525460146
 C        -5.3723755830       -1.7552457259       -1.2717938094
 O        -5.3224982673       -5.0850385215       -3.1123804841
 O        -3.8839623761       -2.8540100361        0.2018133879
 C        -6.8013301612       -4.4660471070       -0.9923159465
 C        -4.9015960760       -5.5160121654        0.3665785919
 H        -3.7147709370        3.6475850805        1.9843815660
 H        -3.8487809951        3.4517153429        0.2119272461
 H        -5.1801815782        3.9168973089        1.1651639935
 H        -5.5412721033        2.1476866518        5.0701934617
 H        -6.3488543494        0.7698666039        5.6594013151
 H        -5.7479767432        3.6215818214        3.1638558116
 H        -7.2376008027        2.7127982331        3.5287043938
 H        -6.9826160782        3.2335425052        1.9570505177
 H        -7.5777169073        0.4517195308        2.6569523813
 H        -7.2379302699        1.0062811252        1.0232013847
 H        -6.3090397229       -0.3857934074        1.6020810027
 H        -4.2464614127        1.1014127407        7.0043557785
 H        -3.6094028801       -0.0252654000        5.9168767928
 H        -1.4019209013       -0.0534210012        3.6275343350
 H         0.2171969174        0.3659728383        4.3683933719
 H        -0.6516076355        3.4655917257        5.8471998559
 H        -0.7074225361        2.4660509970        4.2970643850
 H         0.5015442832        2.0722412398        5.5349390343
 H        -2.0046383048        0.8170183381        8.0380842163
 H        -0.3679587904        1.6466680499        8.0042187822
 H        -1.8834449575        2.5767915424        7.8485733552
 H        -0.5983501338       -2.3187965944        5.2480335328
 H         0.8952881479       -1.9248849682        4.4564823585
 H         1.9626916648       -1.4356232182       -0.0967954724
 H         0.7324049992       -1.0197965122       -1.1120505155
 H         2.2567364435       -3.0382602189        1.4095005003
 H         1.5893720524       -3.8394784470        2.8305122123
 H         2.0787528824       -2.0753142477        2.7331533099
 H         0.3677969948       -3.6609718413       -0.0769586711
 H        -0.0436606603       -4.6764448160        1.3080763112
 H        -1.3571341512       -3.7418825424        0.4487249721
 H         2.4672015859        0.8774036283       -0.7403250825
 H         0.7734499090        1.3389398187       -0.3972753183
 H         3.5655585856        4.9522790167        1.7532420970
 H         5.1410894633        4.0541492689        1.8292538594
 H         0.7736503775        3.3688441864        0.7379641204
 H         1.1696527468        4.5539774525        2.0524588650
 H         0.4236640368        3.1481503204        2.3890335163
 H         3.1055231286        3.3584254289        3.6682501686
 H         2.3940336437        1.7058677541        3.8447184757
 H         4.0109002407        1.8714741055        3.1723061082
 H         5.7841074613        4.3075317949       -0.2147644328
 H         5.6898518948        5.8202129668        0.7136339936
 H         4.5716978155        2.7178006365       -2.3877360011
 H         3.5635466412        3.9650567849       -3.2642376990
 H         4.7852373827        7.6286184038       -3.3353103011
 H         3.7615318239        6.2544657197       -3.5837812092
 H         5.2143318888        6.4006466802       -4.5166041385
 H         7.1084431351        5.8401808020       -1.0638907830
 H         7.3828647770        5.8981979538       -2.7236029001
 H         6.7133704437        7.3883790460       -1.6692862609
 H         4.4438828663        3.2103415746       -5.3721779163
 H         5.8852179177        2.5155841081       -4.7813677922
 H         1.4362080007       -0.6986765940       -4.4280184166
 H         2.6914475347       -1.5355300666       -5.6648931822
 H         5.8046196767       -1.7714168081       -4.8470591831
 H         6.3522191141       -0.0777403781       -5.4829727110
 H         4.8530092376       -1.0661395114       -6.0127776055
 H         5.5551098156       -0.5619999282       -2.0357544219
 H         6.3253423280        0.7904752360       -3.0495073073
 H         4.7921993431        1.0201084150       -2.2089439722
 H         1.6831392146       -2.9594507430       -3.1260917642
 H         2.5527941781       -3.5126470105       -4.6420871902
 H        -3.1206154828       -4.0160288361       -3.7691953669
 H        -2.9374337868       -5.7263102022       -4.1311781176
 H        -0.6484047974       -4.9818831255       -7.0433304417
 H        -1.8108494016       -3.9366976953       -6.0272532982
 H        -1.8518039949       -5.6749805638       -6.0114017071
 H         1.4567995514       -5.7767816993       -5.7252989535
 H         1.7260620514       -5.5989466837       -3.9986716671
 H         0.4828944696       -6.6922997971       -4.6859375224
 H        -2.9802459927       -6.3704517854       -1.9290494298
 H        -2.5361381771       -4.8066964249       -1.3429675758
 H        -4.9859791617       -0.8164039163       -0.8853322670
 H        -4.9664728838       -1.7138425032       -2.2783124234
 H        -6.5026925056       -1.5815722806       -1.2793772903
 H        -7.0708240041       -5.5602959367       -0.7296171173
 H        -7.0084919188       -4.2361679645       -2.0300829092
 H        -7.3002537860       -3.8539905067       -0.2670011732
 H        -4.8994650519       -6.5663061768        0.0928333217
 H        -3.9226301533       -5.3180782568        0.7014646434
 H        -5.5821274160       -5.3450716934        1.2301085555
 Na       -3.1845455947       -1.0788649101        1.5406055836
