155

 C        -5.0185340221        2.9038182016        0.3592975497
 C        -5.0549582048        1.5937965014        1.1341337251
 C        -5.9567923596        1.4081637383        2.3916231718
 C        -5.0200894786        0.8564979864        3.5349808220
 C        -5.4269382828        1.2086665385        4.9703719474
 C        -6.6786879214        2.7063651928        2.8746193939
 C        -7.1264229459        0.3455368000        2.2524299313
 O        -4.4376088495        0.7077196466        0.6044185480
 O        -4.1549577063        0.0382974480        3.2290663615
 C        -4.4348663366        0.9199937660        6.0046354803
 C        -3.1192857792        1.6723917776        5.7321061464
 C        -1.8203608558        1.3134154639        6.4802685997
 C        -1.3188660890       -0.1078929727        6.0060509368
 C        -0.9602830714       -0.2200565916        4.4761624493
 O        -3.0369174178        2.4024291845        4.7988043670
 O        -1.1522770719       -1.0616030042        6.7268762913
 C        -0.7465390493        2.3722129782        6.1734671440
 C        -2.1620198869        1.2380671679        8.0795269679
 C        -0.3034273233       -1.5317481159        4.0637349952
 C        -0.8046288780       -2.2184753676        2.8263551724
 C         0.0700366302       -2.2933138240        1.5590434187
 C         0.0085340194       -0.9707949045        0.7433342514
 C         1.1629187527       -0.5929434739       -0.1462488030
 C         1.4939462833       -2.6657997364        1.8963837075
 C        -0.6385306352       -3.3219079912        0.5456406636
 O        -2.0320607882       -2.3950159015        2.7979772687
 O        -1.0816483577       -0.4855042323        0.5457829022
 C         1.4006898896        0.9120205264       -0.0669512074
 C         1.7963678118        1.1504611882        1.4774020074
 C         2.5296432254        2.5500471437        1.8192520028
 C         3.6539100151        3.0526288847        0.7588955510
 C         4.5928121860        4.2577809505        1.0171820590
 O         1.5637140002        0.2686986015        2.3099439381
 O         3.8637427685        2.4095143218       -0.2913987340
 C         1.3943199119        3.5753379813        1.8299578096
 C         3.0554707001        2.3814174973        3.2628095037
 C         5.3462455870        4.7912778046       -0.2882270706
 C         4.4545007131        5.6806233130       -1.1490440057
 C         5.2540126649        6.1050616243       -2.5065189262
 C         5.6441256896        4.6459218760       -3.2007092063
 C         4.5394185832        3.8771465949       -4.0001118639
 C         4.4221164262        6.9085627798       -3.5026372768
 C         6.5636208955        6.9066145335       -2.1547956484
 O         3.3394488666        6.0031254814       -0.8399450274
 O         6.6388555142        4.0794944475       -2.8869164352
 C         4.8949489654        2.4032722597       -4.4075177988
 C         3.8739421293        1.2986553122       -4.1056718335
 C         4.4938106387       -0.0676768682       -3.6418348164
 C         3.3572048830       -1.1058258264       -3.2843082315
 C         2.3067181311       -1.5629212436       -4.3751349464
 O         2.7139875236        1.5267007356       -4.3422242682
 O         3.2047643779       -1.4253942902       -2.1304241984
 C         5.4404949601       -0.6872093498       -4.6740422770
 C         5.4230675839        0.1956552132       -2.3726300347
 C         1.9564610203       -3.1416019999       -4.2679081398
 C         0.6263005231       -3.4351593500       -4.9675985863
 C        -0.0367754571       -4.9008046317       -5.0119704435
 C        -0.7015617780       -5.0271250825       -3.5900001597
 C        -2.1741830579       -5.0764577927       -3.4897095943
 C        -1.0472379391       -4.8722671999       -6.1600752768
 C         1.0427198758       -6.0570497798       -5.2222940513
 O        -0.1561144261       -2.5827821616       -5.3111597651
 O         0.0070394257       -5.0910797550       -2.5960911462
 C        -2.7943041246       -4.5415524537       -2.1494582305
 C        -4.2969356589       -4.8327509428       -2.2085399468
 C        -5.0980060163       -4.6211290845       -0.8436434821
 C        -4.8027224798       -3.1155720784       -0.3045999716
 C        -5.2548486698       -1.8868428466       -1.0094613881
 O        -4.9169537886       -4.7281606516       -3.2528319662
 O        -4.1955371751       -3.0193680367        0.7889559643
 C        -6.5819310064       -4.7357822605       -1.3181331967
 C        -4.7225486057       -5.6592579258        0.1987933100
 H        -4.7591445762        3.8258926010        0.8560964918
 H        -4.2710646897        2.7692934028       -0.4515171195
 H        -5.9250807037        3.1017107089       -0.2269145530
 H        -5.6431050077        2.3160355702        4.9605901607
 H        -6.3824000976        0.7505500660        5.2050970624
 H        -5.9048969606        3.3741287493        3.3096331549
 H        -7.4069111387        2.5341874179        3.6812655429
 H        -7.1347018466        3.2379687036        2.0519794346
 H        -7.8318557508        0.4233415030        3.0862216960
 H        -7.6218941635        0.5503204578        1.2503221579
 H        -6.7055571249       -0.6014096868        2.2495720268
 H        -4.5572125607        1.4060841704        7.0058489637
 H        -4.1367139086       -0.2003884566        6.0523583684
 H        -1.9125232558       -0.0580487947        3.9157922500
 H        -0.2638924385        0.6705460531        4.2323465855
 H        -0.9834300553        3.2432126853        6.7564668431
 H        -0.9754407192        2.8317808088        5.1675455751
 H         0.2851463458        1.9721456588        6.4399709429
 H        -2.9954226710        0.5918912185        8.3897851524
 H        -1.2655002819        0.8779303726        8.5737628971
 H        -2.4892800077        2.1920919507        8.4354383026
 H        -0.4803209259       -2.2768543083        4.8511392962
 H         0.7550518566       -1.2556171629        4.1204426501
 H         2.0263979195       -1.2539399790       -0.2089761890
 H         0.7959630833       -0.5777063085       -1.2250994508
 H         2.1757713753       -2.6834739927        1.1289509136
 H         1.6331876035       -3.5734708345        2.5123583446
 H         1.8120876367       -1.9005756986        2.5856392943
 H        -0.0513261387       -3.2923161921       -0.4670749810
 H        -0.6227632912       -4.3566797447        0.8795578096
 H        -1.6703215693       -2.9946305438        0.4418719610
 H         2.1826221807        1.1884302313       -0.7399828594
 H         0.4583420813        1.3497536971       -0.1996665602
 H         4.0236174945        5.0368325104        1.5583731098
 H         5.3385931969        3.8597789689        1.7188827246
 H         0.5846211217        3.5319193112        1.0637543793
 H         1.8410114552        4.6032676467        1.6761713363
 H         0.7971978156        3.5396145791        2.7456279157
 H         3.1202538088        3.3642229145        3.8436424319
 H         2.4520324523        1.6863995897        3.8234035384
 H         4.0299682248        2.0311798194        3.1228781757
 H         5.5676665387        3.8670702563       -0.8884220522
 H         6.2582114235        5.3441318517       -0.0485428276
 H         3.5808161857        3.9552579190       -3.5137562974
 H         4.3555223580        4.4780855013       -4.9055439224
 H         4.3359092010        7.9946364489       -3.1567323315
 H         3.4202448484        6.4879813709       -3.7330153459
 H         4.9743878143        6.9330461217       -4.4433975328
 H         7.1677722658        6.1854495674       -1.5788798515
 H         6.9586235524        7.3114235718       -3.0871310714
 H         6.2456424563        7.7747687620       -1.5839904494
 H         5.1672291687        2.4620076937       -5.4798724743
 H         5.8598404070        2.2085964664       -3.9430013982
 H         1.4790166425       -0.9285639277       -4.1614382475
 H         2.7108277470       -1.3275072593       -5.2881789342
 H         5.6612834015       -1.7883595771       -4.5384460467
 H         6.4476821256       -0.1536673673       -4.6054351614
 H         5.1586552692       -0.3894858138       -5.6513871987
 H         5.8478651258       -0.7568958595       -2.0921640324
 H         6.2324833303        0.9708107055       -2.5884787503
 H         4.8565133359        0.5204907038       -1.4790542017
 H         1.7785215751       -3.3811859725       -3.2311764983
 H         2.7908613957       -3.7582303855       -4.6588701180
 H        -2.6782247409       -4.5995527472       -4.2825818710
 H        -2.5498206375       -6.0883222415       -3.5564494448
 H        -0.4671526130       -5.0453164466       -7.1325444238
 H        -1.5823063348       -3.9261583172       -6.3221198671
 H        -1.7956047337       -5.6931487599       -5.9919236941
 H         1.3953926181       -5.9511772006       -6.2222705032
 H         1.8677815795       -6.1284005467       -4.5325868021
 H         0.4543551820       -6.9812678025       -5.0856502289
 H        -2.3756597727       -5.0721088022       -1.2385886533
 H        -2.5932758426       -3.4327408596       -2.0519409101
 H        -6.2674341924       -1.5611496670       -0.5457671002
 H        -4.6716336018       -0.9412154972       -0.8958657830
 H        -5.5141206244       -2.2074566702       -2.0189765722
 H        -6.7004407684       -5.6595808323       -1.8225194760
 H        -6.7113263007       -3.9172983078       -2.0018969398
 H        -7.2039077532       -4.5047856090       -0.4789530547
 H        -4.7801745966       -6.6155211416       -0.2305168189
 H        -3.7910494802       -5.5975576691        0.6560162289
 H        -5.5026400201       -5.6962300992        0.9874965397
 Na       -3.0899205129       -0.9758627330        1.4805190325
