155

 C        -5.8551571467        2.9440384528        0.2602126383
 C        -5.4509720740        1.5942031419        0.8929217865
 C        -6.3317751668        1.2719839593        2.3309133988
 C        -5.2123765744        1.0226354277        3.4587212297
 C        -5.2814408718        1.6298218578        4.7856021459
 C        -7.2097379877        2.4995256169        2.6631188034
 C        -7.0579920147       -0.0987119324        2.0725153811
 O        -4.5699085012        0.8171549666        0.4935711570
 O        -4.2546798318        0.2803751601        3.2550388143
 C        -4.3837838252        0.9048034440        5.7824214949
 C        -3.0513319014        1.5839191000        5.9340668777
 C        -1.9799882482        1.0158845378        6.8694287645
 C        -0.9860785178       -0.0948569265        6.1026800078
 C        -0.9199963223       -0.0183352113        4.6100632580
 O        -2.7146617015        2.3924408406        5.0574982591
 O        -0.3639117635       -0.8489509012        6.8159003109
 C        -0.9655807068        2.1330496739        7.2550919592
 C        -2.5417065630        0.3214166471        8.1575401666
 C        -0.0234848203       -1.1745236727        4.0638242060
 C        -0.7834879451       -1.8996253770        2.9246154468
 C        -0.0255935640       -2.1398220900        1.5698200902
 C        -0.3668779519       -0.9185170510        0.6532530376
 C         0.7188879583       -0.2173865915       -0.2066726887
 C         1.4578506454       -2.5377298182        1.7713456412
 C        -0.6742204281       -3.4229076430        0.8376740172
 O        -1.9744773756       -2.1322618468        3.0689907401
 O        -1.5347062775       -0.5002464758        0.5510087573
 C         1.0754377351        1.3195065758        0.1475948589
 C         1.8694538061        1.4038532056        1.4432361980
 C         2.4859828924        2.8728085059        1.8770178363
 C         3.7724529570        3.1588412294        0.8457313798
 C         4.9507658696        4.2782461424        1.1460240132
 O         2.0583710821        0.4408968367        2.1750683035
 O         3.7495796612        2.5760068190       -0.2039735391
 C         1.5464462462        3.9958702140        1.3098944202
 C         2.9020698184        2.9535481100        3.3932483014
 C         5.6703950378        4.8720975879       -0.1284620955
 C         4.4937114957        5.4419709187       -1.0513756478
 C         4.8594512111        5.8849413319       -2.5755553862
 C         5.3939946877        4.5280238164       -3.2886392844
 C         4.4718074229        3.6688663299       -4.2155477869
 C         3.5905227348        6.5985685062       -3.2075835275
 C         6.1169858419        6.8809337277       -2.5484127797
 O         3.3397842177        5.4206963285       -0.7178356526
 O         6.5296213037        4.1534494355       -3.1944775306
 C         4.9902607417        2.1851128371       -4.2066406321
 C         4.0716727880        1.2097234312       -3.5125328137
 C         4.6139079223       -0.2733768915       -3.2945636546
 C         3.3382210762       -1.1229072053       -3.1855042683
 C         2.4360413844       -1.3396898301       -4.3701510625
 O         2.9516650782        1.4919268445       -3.1557516059
 O         3.1321143111       -1.6199580278       -2.1015478913
 C         5.4296411121       -0.6410166274       -4.5458906990
 C         5.4622704620       -0.4333193150       -1.9928282819
 C         1.9993616947       -2.8050717818       -4.3027183053
 C         0.9382024659       -3.2752433055       -5.3235992972
 C         0.4602314557       -4.7728017036       -5.0914482730
 C        -0.5230243773       -4.7286272551       -3.8486789630
 C        -2.0303057120       -4.6617934662       -3.8922982312
 C        -0.3206075581       -5.3001127370       -6.4060255356
 C         1.6393130369       -5.7617360753       -4.8420392816
 O         0.4479507857       -2.5212324622       -6.1021732164
 O        -0.0223580613       -4.8797858679       -2.7601322025
 C        -2.7451924119       -5.0243474045       -2.4594472429
 C        -4.1927274460       -4.7942555008       -2.4585055873
 C        -4.9154668726       -4.8210810108       -1.0052970569
 C        -4.8103426255       -3.3266857633       -0.5335958704
 C        -5.3032650294       -2.1265355024       -1.5399060985
 O        -4.8615676167       -4.5398021856       -3.4802880323
 O        -4.4033183680       -2.9468892659        0.5438646242
 C        -6.4904883863       -5.2277983012       -1.3357361380
 C        -4.3260019290       -5.6597541859        0.1414574278
 H        -5.6551861527        3.8582637437        0.8956810033
 H        -5.2984761247        3.2484936270       -0.6189939213
 H        -6.9061623401        2.9172319192       -0.0287636975
 H        -4.9017026291        2.6475175815        4.5983650012
 H        -6.2919260659        1.7059316139        5.3163211463
 H        -6.5987637373        3.3357132519        2.9217823659
 H        -7.8764265110        2.1965264812        3.4943674656
 H        -7.9023384390        2.7237518533        1.7817421392
 H        -7.8180474707       -0.1268577250        2.8314803195
 H        -7.4704554581       -0.1388306834        1.0931849929
 H        -6.3450836173       -0.9446051438        2.2359212593
 H        -4.9270528719        0.8780042348        6.7742431760
 H        -4.2838894185       -0.1051982366        5.4315622355
 H        -1.9726288452       -0.1526169850        4.2768303799
 H        -0.6407999666        0.9116599545        4.1994678590
 H        -1.5018511907        2.8890842040        7.9234016633
 H        -0.5381653869        2.5010019093        6.3302969207
 H        -0.1937516577        1.7735804741        7.8663581362
 H        -3.0599773613       -0.6215080020        8.0875996602
 H        -1.7190074358        0.0447445401        8.7642090010
 H        -2.9182174319        1.0433073026        8.8676648678
 H         0.3164740329       -1.8805016339        4.8683514357
 H         0.8494271571       -0.6259474908        3.5799309392
 H         1.5958971636       -0.8144833401       -0.0155836714
 H         0.3863532106       -0.2617978379       -1.2311343797
 H         2.1397169487       -2.6009383444        0.9331298697
 H         1.5198307044       -3.4844295384        2.2327032743
 H         1.8513751791       -1.8248074175        2.4602371737
 H        -0.2703953537       -3.5083922930       -0.2459753818
 H        -0.4765660082       -4.3030378601        1.3928577527
 H        -1.7312615430       -3.1804763794        0.8253675370
 H         1.7834622083        1.8680900220       -0.5282480301
 H         0.1732024316        1.9267429881        0.4346714363
 H         4.4941527207        5.1507739207        1.6290567837
 H         5.5969192489        3.8641051469        1.9176805118
 H         1.5368763090        3.9503660123        0.2292037519
 H         1.8965573598        4.9785329820        1.6359267712
 H         0.4778703663        3.9594361783        1.7543314673
 H         3.3222996913        3.9351396517        3.7842243858
 H         1.9878080239        2.7174221312        3.8503209916
 H         3.5794185014        2.1738459750        3.5846603632
 H         6.1337565529        4.1166745181       -0.7360745207
 H         6.4382976032        5.6236350065        0.1644639265
 H         3.4109389985        3.7289658133       -4.0361999614
 H         4.5292962789        4.0394236238       -5.2115592276
 H         3.3358335600        7.5023400906       -2.6286980178
 H         2.5523030615        6.0363682592       -3.0566975725
 H         3.6851835516        6.8419339353       -4.2750532923
 H         7.0544472503        6.1634820610       -2.4258796601
 H         6.2140395101        7.4392766592       -3.4762023731
 H         5.8836122120        7.6018808495       -1.7462652324
 H         5.0255788562        1.8513546353       -5.3020983762
 H         5.9684725923        2.2243098505       -3.7589041300
 H         1.5884173461       -0.6830074278       -4.3087340583
 H         2.8508086201       -0.9961376526       -5.3802021579
 H         5.2959140820       -1.7207794033       -4.7669440162
 H         6.4845432564       -0.5054103021       -4.4439507565
 H         5.0428581958       -0.0847290147       -5.3827403435
 H         6.1173487572       -1.3289637506       -1.9845308769
 H         6.1806850700        0.4073459247       -1.8947559828
 H         4.7703758574       -0.4316865344       -1.1917654110
 H         1.5448214073       -3.0609730627       -3.3826407300
 H         2.7601646118       -3.4455526400       -4.4166143954
 H        -2.4091022933       -3.6420832168       -4.1524154067
 H        -2.3750415931       -5.3173039459       -4.7067004340
 H         0.4342306073       -5.5052225330       -7.1175234005
 H        -1.1570335658       -4.7166145584       -6.8812135857
 H        -0.6168523106       -6.3348583357       -6.1284031330
 H         2.4066462427       -5.6308769578       -5.5952189972
 H         1.8685739659       -5.5628859434       -3.7911233354
 H         1.3742988260       -6.8122649867       -4.9969591702
 H        -2.4898048807       -6.0684444259       -2.2671464992
 H        -2.2016597461       -4.4389005145       -1.6953564454
 H        -5.3607792161       -2.2849267727       -2.6304356798
 H        -6.4318900627       -2.0623776863       -1.3175530110
 H        -4.8276208213       -1.1834138544       -1.3487023264
 H        -6.5969460201       -6.2094431318       -1.5766382049
 H        -6.8209753704       -4.5795258470       -2.1326820092
 H        -6.9515960810       -5.0577513668       -0.3628298528
 H        -4.6835588790       -6.6523010275        0.0795304265
 H        -3.2137710161       -5.7049402696        0.1689407113
 H        -4.5311247254       -5.2787845348        1.0847711066
 Na       -3.5179294630       -1.1722729960        1.4604374326
