155

 C        -5.9708392375        2.8336065660        0.4323014035
 C        -5.5287449729        1.4118890976        0.9374231004
 C        -6.2343873348        0.9103556799        2.3080270711
 C        -5.2143517994        0.8479258008        3.4548784563
 C        -5.0715272766        1.8555117643        4.5862285227
 C        -7.3461363263        1.9408029383        2.7153437571
 C        -6.9236122569       -0.5161630416        2.1369778521
 O        -4.7179028767        0.7183115531        0.3809286599
 O        -4.4621087229       -0.0977079150        3.4386006044
 C        -4.3881463242        1.2995197557        5.9011878974
 C        -2.8761091870        1.6809644420        6.1956093812
 C        -2.0181220919        0.8693020883        7.1377213080
 C        -0.9844074342       -0.0039799906        6.2680182979
 C        -0.9417846592        0.0802957701        4.7808868236
 O        -2.4140163451        2.5595696760        5.4906129021
 O        -0.2985155326       -0.7612638197        6.8697886755
 C        -1.1964242185        1.9331913561        7.9918342791
 C        -2.6740487662        0.0234524029        8.1525855093
 C        -0.0419547278       -0.9635548696        4.0055156921
 C        -0.9256799092       -1.5313739439        2.8259548949
 C        -0.2169743528       -1.9686194720        1.4388699766
 C        -0.2771490811       -0.7429017189        0.5249184749
 C         0.9089822400       -0.0783807680       -0.1734315339
 C         1.2739112207       -2.3442285391        1.8089849619
 C        -0.9766735464       -3.1395455708        0.7500049271
 O        -2.1358975890       -1.5854375564        2.9204221700
 O        -1.3949202667       -0.2725126904        0.2883176538
 C         1.0539929427        1.4254098917        0.1320728308
 C         1.9446469217        1.6233370466        1.3634378671
 C         2.4557595027        3.1394803722        1.6498217625
 C         3.7374425103        3.3250753567        0.7561076476
 C         4.9413128897        4.2201823710        1.0312967040
 O         2.3049225852        0.7442888181        2.1474449415
 O         3.8128023634        2.3229574215        0.0161472773
 C         1.3301205358        4.0887046261        1.2405233709
 C         2.8393907048        3.3427917223        3.1471471172
 C         5.5252598019        4.9435004745       -0.2057749706
 C         4.2815583742        5.3185946232       -1.0767438492
 C         4.7269304973        5.7838601285       -2.4710305462
 C         5.3098195685        4.4719086517       -3.1190095424
 C         4.1999539530        3.5042002756       -3.7867217871
 C         3.6102002546        6.3207125805       -3.3069787349
 C         5.7450378587        7.0088265557       -2.3382498469
 O         3.1396098553        5.3605040561       -0.6538167019
 O         6.4643524648        4.2033118638       -3.2053853488
 C         4.7373082732        2.0776532920       -4.1078489337
 C         3.9676234342        0.9909512711       -3.3326605404
 C         4.5891825369       -0.4592960973       -3.2644116177
 C         3.2951738661       -1.2768786912       -2.9348601198
 C         2.3618029389       -1.4307038451       -4.1032304675
 O         2.9950864634        1.2933881041       -2.6614802773
 O         3.0595266168       -1.5835259398       -1.7791263282
 C         5.4052539544       -0.9703526440       -4.4772110864
 C         5.5093572300       -0.2914750569       -2.0014862276
 C         2.3022520949       -2.9574785842       -4.2867091541
 C         1.2077226175       -3.3544918292       -5.2488019011
 C         0.5579668091       -4.8091630139       -5.1737510301
 C        -0.3590393970       -4.7201528116       -3.8629518262
 C        -1.8816361242       -4.7834152839       -4.1495292897
 C        -0.1964274265       -5.2220482466       -6.3463590988
 C         1.6634930007       -5.9270633072       -4.8799757537
 O         0.7599449334       -2.5984768745       -6.0929268651
 O         0.0086468707       -4.2544469629       -2.7692269783
 C        -2.6179247989       -5.2587748739       -2.8165665134
 C        -4.1185662549       -4.8328178900       -2.7774449747
 C        -4.7866375075       -4.8511764161       -1.3770364613
 C        -4.7209704213       -3.3173824579       -0.8474467298
 C        -5.4247502332       -2.2198858987       -1.6207476107
 O        -4.8670250834       -4.4375346052       -3.6909583602
 O        -4.1322574081       -3.1351884773        0.1994454612
 C        -6.2556737287       -5.3577592217       -1.5162001309
 C        -3.9985014681       -5.7663910325       -0.3620765605
 H        -6.1375410042        3.6708173338        1.1229451976
 H        -5.2338851106        3.1868787629       -0.2810733524
 H        -6.8676808908        2.7897642750       -0.1549312820
 H        -4.1847271010        2.4818257443        4.4331244049
 H        -5.9824665114        2.4399502437        4.8688026598
 H        -6.8719825004        2.8339099390        2.9633829332
 H        -7.9980705348        1.6137360817        3.5047417563
 H        -7.9577011498        2.1366153223        1.8229753918
 H        -7.1503028300       -1.0545254581        3.0628299139
 H        -7.8449832189       -0.3436693534        1.5534862039
 H        -6.2076373682       -1.0535279883        1.5343295356
 H        -5.0128443124        1.5526982199        6.8391629190
 H        -4.5139774916        0.1753300705        5.8530677487
 H        -1.9915035726       -0.1471633370        4.3555272635
 H        -0.7632008112        1.1009958978        4.4600453438
 H        -2.0542832886        2.5277618895        8.3731316412
 H        -0.5041820266        2.5037273279        7.2891943241
 H        -0.5000919959        1.5173642469        8.7925587599
 H        -3.5666491741       -0.4349777449        7.7230367885
 H        -2.0800847652       -0.8028910971        8.3856116673
 H        -2.8990331051        0.3348931644        9.1624171506
 H         0.4166490701       -1.7010312376        4.6768474851
 H         0.7621016807       -0.4905788657        3.3598858954
 H         1.8189748405       -0.5943909230        0.0728092098
 H         0.7017834495       -0.1182332384       -1.2832531481
 H         1.8087362776       -2.4624075580        0.8885680503
 H         1.2459220708       -3.3100584129        2.3233670173
 H         1.9277738460       -1.6418875877        2.3311021930
 H        -0.3063621639       -3.3438614482       -0.1974726298
 H        -1.0586080702       -3.9602172040        1.4054947821
 H        -1.9117120977       -2.7585283125        0.3349837805
 H         1.6322791424        1.9241419533       -0.6753586715
 H         0.1533624110        2.0424165694        0.2770264233
 H         4.6431548185        4.9325133602        1.8260543845
 H         5.7050185359        3.6001806099        1.4863034679
 H         1.2794455567        3.9266862401        0.1977862957
 H         1.6302390391        5.0649712040        1.5954156632
 H         0.2969448542        3.9101287542        1.6987969943
 H         3.0668080017        4.4568157286        3.3762247055
 H         2.0349069151        3.0319785758        3.7602820457
 H         3.6260432806        2.7238535921        3.3836884781
 H         6.2418584243        4.3026028239       -0.7001303015
 H         6.1441762707        5.8642592191        0.0186448425
 H         3.2701699536        3.3244380991       -3.2239811878
 H         3.8335378206        3.9470991529       -4.7000351706
 H         3.1687301925        7.2778111326       -2.8975059081
 H         2.8415028862        5.5735241069       -3.5640567190
 H         3.9783796072        6.7668040950       -4.2419990416
 H         6.6822574148        6.6433910581       -1.8471102596
 H         6.0517947545        7.2631425501       -3.3198758540
 H         5.1907088751        7.7021957636       -1.7651466495
 H         4.6710682208        1.8336448076       -5.2765362674
 H         5.7610743200        2.0207504388       -3.7851744563
 H         1.3956512000       -1.0900544884       -3.8518123492
 H         2.7373324850       -0.8847565584       -4.9907526766
 H         6.1853561644       -1.6964278204       -4.1517957511
 H         5.7299552140       -0.0766213753       -5.0562119874
 H         4.9434503182       -1.6921330096       -5.0717535826
 H         5.9452093850       -1.2552348259       -1.6732023942
 H         6.3781895169        0.4275125259       -2.2615706202
 H         4.9606023250        0.2250195015       -1.2107933615
 H         2.1792330012       -3.4749952171       -3.3818322660
 H         3.0610189930       -3.3957978338       -4.7758748897
 H        -2.2294796684       -3.8005825473       -4.4161674300
 H        -2.1150782711       -5.4449258286       -4.9546960781
 H         0.4654091941       -5.1170082197       -7.2453723168
 H        -1.1120110929       -4.6001342273       -6.3686075682
 H        -0.5340224453       -6.3107596624       -6.3327138247
 H         2.4144730445       -5.8478898503       -5.6386037520
 H         2.0262513434       -5.7527253287       -3.8914507919
 H         1.2145407845       -6.9370542581       -5.0117433393
 H        -2.5157893374       -6.3624789973       -2.8878959093
 H        -2.0342830535       -4.9961218694       -1.8925405124
 H        -4.7975875227       -1.7091846989       -2.4198620302
 H        -6.2964626484       -2.6570400522       -2.2511728304
 H        -5.8981214786       -1.4902895406       -0.9890295879
 H        -6.2756274160       -6.3860182084       -1.5754938367
 H        -6.7186166027       -4.8615863474       -2.3761838114
 H        -6.6692309869       -5.1026585661       -0.5190843589
 H        -3.6562887933       -6.5540767295       -0.9504515138
 H        -3.1554735276       -5.4115041252        0.2086767078
 H        -4.7228376300       -6.2304151721        0.3053879021
 Na       -3.4742588977       -0.8713654559        1.1892057058
