155

 C        -6.2419890723        2.8205644193        0.7614801833
 C        -5.8766119242        1.4019286982        0.9934445769
 C        -6.3554814521        0.8141211964        2.3946236015
 C        -5.0693972967        0.8103920074        3.3996141948
 C        -5.1095337249        1.6908598570        4.6655995388
 C        -7.6171545671        1.4195426597        3.0374668955
 C        -6.5500324624       -0.7134278937        2.2410639888
 O        -5.0892994761        0.8107490146        0.3150263800
 O        -4.0769124951        0.1382600434        3.0271901327
 C        -4.3835098840        0.7804842890        5.6741481665
 C        -3.1968670214        1.4300722172        6.3487454366
 C        -2.2529189795        0.6697036115        7.3056686373
 C        -1.1767853523       -0.1313431839        6.4145922812
 C        -1.1275488918        0.0273533761        4.8830503720
 O        -2.9591892475        2.6036590807        6.0567372296
 O        -0.4181929874       -0.9558443486        6.9161490941
 C        -1.3806204181        1.6934901310        8.0252599294
 C        -2.8749042194       -0.2020050718        8.3911406290
 C        -0.1172307223       -1.0282509906        4.2481539853
 C        -0.6902443158       -1.4331394019        2.7597179979
 C         0.2363584923       -1.6563932874        1.4916025872
 C        -0.0395991773       -0.5949546334        0.4460583022
 C         1.1468569299       -0.0311325044       -0.3254898522
 C         1.8617852650       -1.6121487249        1.9880844475
 C        -0.1154876895       -2.9778687338        0.8170962904
 O        -1.8643209708       -1.7775609815        2.7434155976
 O        -1.2040234979       -0.2979686401        0.1837566301
 C         1.4016535582        1.5290870324       -0.0647684493
 C         1.6223200320        1.8836187652        1.3749939697
 C         2.4068535002        3.1813343182        1.7995572653
 C         3.6806620486        3.5409773792        0.9043771508
 C         4.2213678170        4.9542794622        1.1879825581
 O         0.9831531879        1.2533959630        2.1855473202
 O         4.0718981235        2.6816823966        0.1481391590
 C         1.3588895142        4.4353325021        1.4616990175
 C         2.7498967466        2.9879723516        3.3034676108
 C         4.9495427982        5.5569404119        0.0183446249
 C         4.0306155861        5.7066912778       -1.2661801630
 C         4.5923142111        5.9034317832       -2.7045861988
 C         5.0542953370        4.5219874268       -3.1875304617
 C         4.0858867801        3.3663262845       -3.2551450476
 C         3.6676734884        6.6195549152       -3.7052116050
 C         5.8882630539        6.7841781563       -2.6469589659
 O         2.7863793689        5.7207120340       -1.2298764142
 O         6.2669034663        4.3290634161       -3.2337212219
 C         4.6377915343        2.0376698359       -3.7947019223
 C         3.8237873446        0.8968628543       -3.2587873848
 C         4.5059622849       -0.3860859262       -2.6754224374
 C         3.4727902098       -1.5419980230       -2.4728506398
 C         2.5578306467       -1.9302759257       -3.6691604583
 O         2.6258659275        0.9374286622       -3.1922656113
 O         3.4145450218       -2.2579893200       -1.4970726973
 C         5.4802170351       -0.8665899049       -3.8317222142
 C         5.3194412120       -0.1870854468       -1.3603115216
 C         2.5380152376       -3.4318734573       -3.9673142498
 C         1.6816504158       -3.5380305042       -5.2279602887
 C         0.7292641356       -4.7744966445       -5.3213669918
 C        -0.3097891765       -4.7662379589       -4.0857609437
 C        -1.7936870053       -5.3295359746       -4.4193586966
 C         0.0190592711       -4.7908419929       -6.6171551264
 C         1.6531932702       -6.1137812960       -5.1112018475
 O         1.8291495651       -2.7509231593       -6.1097375938
 O        -0.0772976715       -4.4285946770       -2.9458378321
 C        -2.5614554859       -5.5342938421       -3.1097132686
 C        -3.9507040182       -4.8224486352       -3.0846301913
 C        -4.7464655609       -4.7310845693       -1.6939417496
 C        -4.6759964395       -3.3178408689       -1.1524930501
 C        -5.4959445473       -2.1193394614       -1.7502785229
 O        -4.3019831629       -4.1557228743       -3.9873397954
 O        -3.9571735409       -3.0955158742       -0.1946457785
 C        -6.2537546361       -5.0749592347       -2.0001192898
 C        -4.1951895746       -5.6731387380       -0.7139912405
 H        -6.0582725188        3.4242944624        1.6147659182
 H        -5.9686583159        3.3005545432       -0.2100172660
 H        -7.3368672215        2.9004326145        0.8151869109
 H        -4.5397250930        2.5977668816        4.5830052778
 H        -6.1261557301        1.9794393948        4.9790219308
 H        -7.5173763425        2.5169317655        3.3221818652
 H        -7.8539295954        0.8511690204        3.9679461263
 H        -8.4852433849        1.3303333452        2.3889181123
 H        -6.3379252535       -1.2557775570        3.1613229488
 H        -7.6043994820       -0.9058967706        1.8754696495
 H        -5.9358410558       -1.0682853461        1.4801429837
 H        -5.1650302069        0.4934086618        6.4400988090
 H        -4.2910979611       -0.2242441814        5.0807309367
 H        -2.0983666195       -0.2130462367        4.3877128370
 H        -0.8951693144        1.0338937214        4.7064135923
 H        -2.0860057765        2.2410136793        8.5678029285
 H        -0.8893479930        2.3772572593        7.3563220718
 H        -0.8759430616        1.1862455647        8.8214305206
 H        -3.7819361260       -0.7717537625        8.0555508066
 H        -2.1635207784       -1.0252099267        8.5402427222
 H        -3.2399576159        0.1846744144        9.3683692317
 H         0.1251645662       -1.8261698842        4.8737587418
 H         0.8600966332       -0.5339476028        4.0414580932
 H         2.0406222475       -0.6345272790       -0.3190096633
 H         0.8561308865       -0.1366493187       -1.4083309377
 H         2.4175792212       -2.1337270089        1.2650840594
 H         1.9935110340       -2.3039922760        2.8769737193
 H         2.2953657449       -0.6319282491        2.2067955927
 H         0.3169448813       -2.9668051060       -0.0798035057
 H         0.2208503812       -3.9159518970        1.3403965342
 H        -1.2160531416       -2.8442742170        0.8294107174
 H         2.0853756335        1.8640616939       -0.8404422448
 H         0.5093398387        2.0175130760       -0.4296291528
 H         3.3804431121        5.5924623292        1.5055115612
 H         4.8939318905        4.8193689711        2.0128846322
 H         1.4558218705        4.6668286428        0.4110188412
 H         1.7353597578        5.3454432843        1.8087746789
 H         0.4149914951        4.1517174057        1.7585848866
 H         3.3594364214        3.6932896389        3.7431591929
 H         1.8168044505        2.8024430775        3.9338289657
 H         3.4275400253        2.0481753150        3.3576490124
 H         5.8581450199        4.9831350602       -0.1195460950
 H         5.2534808741        6.6078655034        0.1937255356
 H         3.8884652012        3.2382128788       -2.1487013125
 H         3.1555603721        3.5856223494       -3.7888641619
 H         3.4262947844        7.6107088422       -3.4054698383
 H         2.7295178946        6.2244056532       -3.8557957996
 H         4.1719231337        6.5607572752       -4.6226072213
 H         6.5539792143        6.1641301560       -2.2237258680
 H         6.1584166129        7.2365460164       -3.6470211099
 H         5.7354725240        7.6235859283       -1.9513736780
 H         4.6913794480        1.9254744979       -4.9700177963
 H         5.7009629214        2.0044599108       -3.5940216572
 H         1.4985032739       -1.6729010242       -3.4516127078
 H         2.8829960153       -1.3487774646       -4.5081997739
 H         4.8252429865       -1.0815029219       -4.6919568033
 H         6.2469693212       -1.6452548393       -3.6289017469
 H         6.2184784438       -0.0635961416       -3.9676581039
 H         5.5881730495       -1.1097212172       -0.9991453174
 H         6.1754491020        0.4311891754       -1.5325210021
 H         4.7091282615        0.2264995821       -0.5639749360
 H         2.1326833632       -4.0401174597       -3.1481344329
 H         3.5193596706       -3.8598885859       -4.4103517230
 H        -2.3544930157       -4.6258381845       -5.0252725886
 H        -1.7858055077       -6.2678066165       -4.9756610652
 H         0.5734150032       -4.2928831792       -7.4260703451
 H        -0.8155888298       -4.2006994958       -6.5888841334
 H        -0.2124068642       -5.7787522108       -6.8266460650
 H         2.3985828527       -5.9759353246       -5.8938465973
 H         2.1859857672       -6.1850646725       -4.1434974905
 H         0.9177106541       -6.9234247512       -5.4204046476
 H        -2.8342787671       -6.5937784358       -3.0017809461
 H        -1.8152461723       -5.3043986971       -2.3279488488
 H        -5.8381937319       -1.4389934859       -0.9633473764
 H        -5.0517540472       -1.5871301481       -2.4823143264
 H        -6.3998346515       -2.5430479761       -2.2026542132
 H        -6.2585572927       -6.1596255094       -2.4214686494
 H        -6.6296764549       -4.4308915901       -2.7793780700
 H        -6.8535716355       -4.9471965010       -1.0920584677
 H        -4.5709369275       -6.6339367992       -1.1718258697
 H        -3.1714760265       -5.6500872686       -0.3849638063
 H        -4.8619972861       -5.6093136009        0.2433745639
 Na       -3.3399867773       -0.9740012481        0.9629556415
